version 2
run simple_attack_host-0-20170413-09:57:54-7666
attr configname simple_attack_host
attr datetime 20170413-09:57:54
attr experiment simple_attack_host
attr inifile omnetpp.ini
attr iterationvars ""
attr iterationvars2 $repetition=0
attr measurement ""
attr network Topo
attr processid 7666
attr repetition 0
attr replication #0
attr resultdir results
attr runnumber 0
attr seedset 0

statistic Topo.client1.networkLayer.ip 	hops:stats
field count 0
field mean -nan
field stddev -nan
field sum 0
field sqrsum 0
field min -nan
field max -nan
attr interpolationmode  none
attr source  hops
attr title  "Hops number, stats"
scalar Topo.client1.networkLayer.arp 	failedARPResolution:count 	0
attr title  "ARP failed resolutions, count"
scalar Topo.client1.networkLayer.arp 	completedARPResolution:count 	1
attr title  "ARP completed resolutions, count"
scalar Topo.client1.networkLayer.arp 	initiatedARPResolution:count 	1
attr title  "ARP initiated resolutions, count"
scalar Topo.client1.networkLayer.arp 	sentReply:count 	0
attr title  "ARP replies sent, count"
scalar Topo.client1.networkLayer.arp 	sentReq:count 	1
attr title  "ARP request sent, count"
scalar Topo.client1.lo0.lo 	droppedPkBitError:count 	0
attr interpolationmode  none
attr source  dropPkBitError
attr title  "packets dropped/bit error, count"
scalar Topo.client1.lo0.lo 	droppedPkBitError:sum(packetBytes) 	0
attr interpolationmode  none
attr source  dropPkBitError
attr title  "packets dropped/bit error, sum(packetBytes)"
scalar Topo.client1.lo0.lo 	rcvdPkFromHL:count 	0
attr interpolationmode  none
attr source  packetReceivedFromUpper
attr title  "packets received from higher layer, count"
scalar Topo.client1.lo0.lo 	rcvdPkFromHL:sum(packetBytes) 	0
attr interpolationmode  none
attr source  packetReceivedFromUpper
attr title  "packets received from higher layer, sum(packetBytes)"
scalar Topo.client1.lo0.lo 	passedUpPk:count 	0
attr interpolationmode  none
attr source  packetSentToUpper
attr title  "packets passed to higher layer, count"
scalar Topo.client1.lo0.lo 	passedUpPk:sum(packetBytes) 	0
attr interpolationmode  none
attr source  packetSentToUpper
attr title  "packets passed to higher layer, sum(packetBytes)"
scalar Topo.client1.eth[0].mac 	"simulated time" 	27.574999999745
scalar Topo.client1.eth[0].mac 	full-duplex 	1
scalar Topo.client1.eth[0].mac 	"frames/sec sent" 	10.009066183229
scalar Topo.client1.eth[0].mac 	"frames/sec rcvd" 	0.14505893019173
scalar Topo.client1.eth[0].mac 	"bits/sec sent" 	103416.57298373
scalar Topo.client1.eth[0].mac 	"bits/sec rcvd" 	74.270172258166
scalar Topo.client1.eth[0].mac 	"rx channel idle (%)" 	99.999916446056
scalar Topo.client1.eth[0].mac 	"rx channel utilization (%)" 	8.3553943790437e-05
scalar Topo.client1.eth[0].mac 	droppedPkNotForUs:count 	0
attr interpolationmode  none
attr source  dropPkNotForUs
attr title  "packets dropped/not for us, count"
scalar Topo.client1.eth[0].mac 	droppedPkNotForUs:sum(packetBytes) 	0
attr interpolationmode  none
attr source  dropPkNotForUs
attr title  "packets dropped/not for us, sum(packetBytes)"
scalar Topo.client1.eth[0].mac 	droppedPkIfaceDown:count 	0
attr interpolationmode  none
attr source  dropPkIfaceDown
attr title  "packets dropped/interface down, count"
scalar Topo.client1.eth[0].mac 	droppedPkIfaceDown:sum(packetBytes) 	0
attr interpolationmode  none
attr source  dropPkIfaceDown
attr title  "packets dropped/interface down, sum(packetBytes)"
scalar Topo.client1.eth[0].mac 	droppedPkBitError:count 	0
attr interpolationmode  none
attr source  dropPkBitError
attr title  "packets dropped/bit error, count"
scalar Topo.client1.eth[0].mac 	droppedPkBitError:sum(packetBytes) 	0
attr interpolationmode  none
attr source  dropPkBitError
attr title  "packets dropped/bit error, sum(packetBytes)"
scalar Topo.client1.eth[0].mac 	rxPkFromHL:count 	276
attr interpolationmode  none
attr source  rxPkFromHL
attr title  "packet bytes from higher layer, count"
scalar Topo.client1.eth[0].mac 	rxPkFromHL:sum(packetBytes) 	356464
attr interpolationmode  none
attr source  rxPkFromHL
attr title  "packet bytes from higher layer, sum(packetBytes)"
scalar Topo.client1.eth[0].mac 	rxPausePkUnits:count 	0
attr interpolationmode  none
attr title  "pause units received, count"
scalar Topo.client1.eth[0].mac 	rxPausePkUnits:sum 	0
attr interpolationmode  none
attr title  "pause units received, sum"
scalar Topo.client1.eth[0].mac 	txPausePkUnits:count 	0
attr interpolationmode  none
attr title  "pause units sent, count"
scalar Topo.client1.eth[0].mac 	txPausePkUnits:sum 	0
attr interpolationmode  none
attr title  "pause units sent, sum"
scalar Topo.client1.eth[0].mac 	rxPkOk:count 	4
attr interpolationmode  none
attr source  rxPkOk
attr title  "packets received OK, count"
scalar Topo.client1.eth[0].mac 	rxPkOk:sum(packetBytes) 	256
attr interpolationmode  none
attr source  rxPkOk
attr title  "packets received OK, sum(packetBytes)"
scalar Topo.client1.eth[0].mac 	txPk:count 	276
attr interpolationmode  none
attr source  txPk
attr title  "packets transmitted, count"
scalar Topo.client1.eth[0].mac 	txPk:sum(packetBytes) 	356464
attr interpolationmode  none
attr source  txPk
attr title  "packets transmitted, sum(packetBytes)"
scalar Topo.client1.eth[0].mac 	passedUpPk:count 	4
attr interpolationmode  none
attr source  packetSentToUpper
attr title  "packets passed to higher layer, count"
scalar Topo.client1.eth[0].mac 	passedUpPk:sum(packetBytes) 	256
attr interpolationmode  none
attr source  packetSentToUpper
attr title  "packets passed to higher layer, sum(packetBytes)"
scalar Topo.client1.eth[0].encap 	pauseSent:count 	0
attr title  "pause sent, count"
scalar Topo.client1.eth[0].encap 	pauseSent:sum 	0
attr title  "pause sent, sum"
scalar Topo.client1.eth[0].encap 	decapPk:count 	4
attr interpolationmode  none
attr source  decapPk
attr title  "packets decapsulated, count"
scalar Topo.client1.eth[0].encap 	decapPk:sum(packetBytes) 	112
attr interpolationmode  none
attr source  decapPk
attr title  "packets decapsulated, sum(packetBytes)"
scalar Topo.client1.eth[0].encap 	encapPk:count 	276
attr interpolationmode  none
attr source  encapPk
attr title  "packets encapsulated, count"
scalar Topo.client1.eth[0].encap 	encapPk:sum(packetBytes) 	351478
attr interpolationmode  none
attr source  encapPk
attr title  "packets encapsulated, sum(packetBytes)"
scalar Topo.client1.udpApp[0] 	"packets sent" 	275
scalar Topo.client1.udpApp[0] 	"packets received" 	0
scalar Topo.client1.udpApp[0] 	rcvdPk:count 	0
attr interpolationmode  none
attr source  rcvdPk
attr title  "packets received, count"
scalar Topo.client1.udpApp[0] 	rcvdPk:sum(packetBytes) 	0
attr interpolationmode  none
attr source  rcvdPk
attr title  "packets received, sum(packetBytes)"
statistic Topo.client1.udpApp[0] 	rcvdPkLifetime:stats
field count 0
field mean -nan
field stddev -nan
field sum 0
field sqrsum 0
field min -nan
field max -nan
attr interpolationmode  none
attr source  messageAge(rcvdPk)
attr title  "received packet lifetime, stats"
attr unit  s
scalar Topo.client1.udpApp[0] 	sentPk:count 	275
attr interpolationmode  none
attr source  sentPk
attr title  "packets sent, count"
scalar Topo.client1.udpApp[0] 	sentPk:sum(packetBytes) 	343750
attr interpolationmode  none
attr source  sentPk
attr title  "packets sent, sum(packetBytes)"
scalar Topo.client1.udp 	droppedPkBadChecksum:count 	0
attr interpolationmode  none
attr title  "packets dropped (checksum error), count"
scalar Topo.client1.udp 	droppedPkWrongPort:count 	0
attr interpolationmode  none
attr title  "packets dropped (wrong port), count"
scalar Topo.client1.udp 	passedUpPk:count 	0
attr interpolationmode  none
attr title  "packets passed up, count"
scalar Topo.client1.udp 	rcvdPk:count 	0
attr interpolationmode  none
attr source  rcvdPk
attr title  "packets received, count"
scalar Topo.client1.udp 	rcvdPk:sum(packetBytes) 	0
attr interpolationmode  none
attr source  rcvdPk
attr title  "packets received, sum(packetBytes)"
statistic Topo.client1.udp 	rcvdPkLifetime:stats
field count 0
field mean -nan
field stddev -nan
field sum 0
field sqrsum 0
field min -nan
field max -nan
attr interpolationmode  none
attr source  messageAge(rcvdPk)
attr title  "received packet lifetime, stats"
attr unit  s
scalar Topo.client1.udp 	sentPk:count 	275
attr interpolationmode  none
attr source  sentPk
attr title  "packets sent, count"
scalar Topo.client1.udp 	sentPk:sum(packetBytes) 	345950
attr interpolationmode  none
attr source  sentPk
attr title  "packets sent, sum(packetBytes)"
statistic Topo.client2.networkLayer.ip 	hops:stats
field count 0
field mean -nan
field stddev -nan
field sum 0
field sqrsum 0
field min -nan
field max -nan
attr interpolationmode  none
attr source  hops
attr title  "Hops number, stats"
scalar Topo.client2.networkLayer.arp 	failedARPResolution:count 	0
attr title  "ARP failed resolutions, count"
scalar Topo.client2.networkLayer.arp 	completedARPResolution:count 	1
attr title  "ARP completed resolutions, count"
scalar Topo.client2.networkLayer.arp 	initiatedARPResolution:count 	1
attr title  "ARP initiated resolutions, count"
scalar Topo.client2.networkLayer.arp 	sentReply:count 	0
attr title  "ARP replies sent, count"
scalar Topo.client2.networkLayer.arp 	sentReq:count 	1
attr title  "ARP request sent, count"
scalar Topo.client2.lo0.lo 	droppedPkBitError:count 	0
attr interpolationmode  none
attr source  dropPkBitError
attr title  "packets dropped/bit error, count"
scalar Topo.client2.lo0.lo 	droppedPkBitError:sum(packetBytes) 	0
attr interpolationmode  none
attr source  dropPkBitError
attr title  "packets dropped/bit error, sum(packetBytes)"
scalar Topo.client2.lo0.lo 	rcvdPkFromHL:count 	0
attr interpolationmode  none
attr source  packetReceivedFromUpper
attr title  "packets received from higher layer, count"
scalar Topo.client2.lo0.lo 	rcvdPkFromHL:sum(packetBytes) 	0
attr interpolationmode  none
attr source  packetReceivedFromUpper
attr title  "packets received from higher layer, sum(packetBytes)"
scalar Topo.client2.lo0.lo 	passedUpPk:count 	0
attr interpolationmode  none
attr source  packetSentToUpper
attr title  "packets passed to higher layer, count"
scalar Topo.client2.lo0.lo 	passedUpPk:sum(packetBytes) 	0
attr interpolationmode  none
attr source  packetSentToUpper
attr title  "packets passed to higher layer, sum(packetBytes)"
scalar Topo.client2.eth[0].mac 	"simulated time" 	27.574999999745
scalar Topo.client2.eth[0].mac 	full-duplex 	1
scalar Topo.client2.eth[0].mac 	"frames/sec sent" 	1.6681776972049
scalar Topo.client2.eth[0].mac 	"frames/sec rcvd" 	0.14505893019173
scalar Topo.client2.eth[0].mac 	"bits/sec sent" 	16938.241160628
scalar Topo.client2.eth[0].mac 	"bits/sec rcvd" 	74.270172258166
scalar Topo.client2.eth[0].mac 	"rx channel idle (%)" 	99.999916446056
scalar Topo.client2.eth[0].mac 	"rx channel utilization (%)" 	8.3553943790437e-05
scalar Topo.client2.eth[0].mac 	droppedPkNotForUs:count 	0
attr interpolationmode  none
attr source  dropPkNotForUs
attr title  "packets dropped/not for us, count"
scalar Topo.client2.eth[0].mac 	droppedPkNotForUs:sum(packetBytes) 	0
attr interpolationmode  none
attr source  dropPkNotForUs
attr title  "packets dropped/not for us, sum(packetBytes)"
scalar Topo.client2.eth[0].mac 	droppedPkIfaceDown:count 	0
attr interpolationmode  none
attr source  dropPkIfaceDown
attr title  "packets dropped/interface down, count"
scalar Topo.client2.eth[0].mac 	droppedPkIfaceDown:sum(packetBytes) 	0
attr interpolationmode  none
attr source  dropPkIfaceDown
attr title  "packets dropped/interface down, sum(packetBytes)"
scalar Topo.client2.eth[0].mac 	droppedPkBitError:count 	0
attr interpolationmode  none
attr source  dropPkBitError
attr title  "packets dropped/bit error, count"
scalar Topo.client2.eth[0].mac 	droppedPkBitError:sum(packetBytes) 	0
attr interpolationmode  none
attr source  dropPkBitError
attr title  "packets dropped/bit error, sum(packetBytes)"
scalar Topo.client2.eth[0].mac 	rxPkFromHL:count 	46
attr interpolationmode  none
attr source  rxPkFromHL
attr title  "packet bytes from higher layer, count"
scalar Topo.client2.eth[0].mac 	rxPkFromHL:sum(packetBytes) 	58384
attr interpolationmode  none
attr source  rxPkFromHL
attr title  "packet bytes from higher layer, sum(packetBytes)"
scalar Topo.client2.eth[0].mac 	rxPausePkUnits:count 	0
attr interpolationmode  none
attr title  "pause units received, count"
scalar Topo.client2.eth[0].mac 	rxPausePkUnits:sum 	0
attr interpolationmode  none
attr title  "pause units received, sum"
scalar Topo.client2.eth[0].mac 	txPausePkUnits:count 	0
attr interpolationmode  none
attr title  "pause units sent, count"
scalar Topo.client2.eth[0].mac 	txPausePkUnits:sum 	0
attr interpolationmode  none
attr title  "pause units sent, sum"
scalar Topo.client2.eth[0].mac 	rxPkOk:count 	4
attr interpolationmode  none
attr source  rxPkOk
attr title  "packets received OK, count"
scalar Topo.client2.eth[0].mac 	rxPkOk:sum(packetBytes) 	256
attr interpolationmode  none
attr source  rxPkOk
attr title  "packets received OK, sum(packetBytes)"
scalar Topo.client2.eth[0].mac 	txPk:count 	46
attr interpolationmode  none
attr source  txPk
attr title  "packets transmitted, count"
scalar Topo.client2.eth[0].mac 	txPk:sum(packetBytes) 	58384
attr interpolationmode  none
attr source  txPk
attr title  "packets transmitted, sum(packetBytes)"
scalar Topo.client2.eth[0].mac 	passedUpPk:count 	4
attr interpolationmode  none
attr source  packetSentToUpper
attr title  "packets passed to higher layer, count"
scalar Topo.client2.eth[0].mac 	passedUpPk:sum(packetBytes) 	256
attr interpolationmode  none
attr source  packetSentToUpper
attr title  "packets passed to higher layer, sum(packetBytes)"
scalar Topo.client2.eth[0].encap 	pauseSent:count 	0
attr title  "pause sent, count"
scalar Topo.client2.eth[0].encap 	pauseSent:sum 	0
attr title  "pause sent, sum"
scalar Topo.client2.eth[0].encap 	decapPk:count 	4
attr interpolationmode  none
attr source  decapPk
attr title  "packets decapsulated, count"
scalar Topo.client2.eth[0].encap 	decapPk:sum(packetBytes) 	112
attr interpolationmode  none
attr source  decapPk
attr title  "packets decapsulated, sum(packetBytes)"
scalar Topo.client2.eth[0].encap 	encapPk:count 	46
attr interpolationmode  none
attr source  encapPk
attr title  "packets encapsulated, count"
scalar Topo.client2.eth[0].encap 	encapPk:sum(packetBytes) 	57538
attr interpolationmode  none
attr source  encapPk
attr title  "packets encapsulated, sum(packetBytes)"
scalar Topo.client2.udpApp[0] 	"packets sent" 	45
scalar Topo.client2.udpApp[0] 	"packets received" 	0
scalar Topo.client2.udpApp[0] 	rcvdPk:count 	0
attr interpolationmode  none
attr source  rcvdPk
attr title  "packets received, count"
scalar Topo.client2.udpApp[0] 	rcvdPk:sum(packetBytes) 	0
attr interpolationmode  none
attr source  rcvdPk
attr title  "packets received, sum(packetBytes)"
statistic Topo.client2.udpApp[0] 	rcvdPkLifetime:stats
field count 0
field mean -nan
field stddev -nan
field sum 0
field sqrsum 0
field min -nan
field max -nan
attr interpolationmode  none
attr source  messageAge(rcvdPk)
attr title  "received packet lifetime, stats"
attr unit  s
scalar Topo.client2.udpApp[0] 	sentPk:count 	45
attr interpolationmode  none
attr source  sentPk
attr title  "packets sent, count"
scalar Topo.client2.udpApp[0] 	sentPk:sum(packetBytes) 	56250
attr interpolationmode  none
attr source  sentPk
attr title  "packets sent, sum(packetBytes)"
scalar Topo.client2.udp 	droppedPkBadChecksum:count 	0
attr interpolationmode  none
attr title  "packets dropped (checksum error), count"
scalar Topo.client2.udp 	droppedPkWrongPort:count 	0
attr interpolationmode  none
attr title  "packets dropped (wrong port), count"
scalar Topo.client2.udp 	passedUpPk:count 	0
attr interpolationmode  none
attr title  "packets passed up, count"
scalar Topo.client2.udp 	rcvdPk:count 	0
attr interpolationmode  none
attr source  rcvdPk
attr title  "packets received, count"
scalar Topo.client2.udp 	rcvdPk:sum(packetBytes) 	0
attr interpolationmode  none
attr source  rcvdPk
attr title  "packets received, sum(packetBytes)"
statistic Topo.client2.udp 	rcvdPkLifetime:stats
field count 0
field mean -nan
field stddev -nan
field sum 0
field sqrsum 0
field min -nan
field max -nan
attr interpolationmode  none
attr source  messageAge(rcvdPk)
attr title  "received packet lifetime, stats"
attr unit  s
scalar Topo.client2.udp 	sentPk:count 	45
attr interpolationmode  none
attr source  sentPk
attr title  "packets sent, count"
scalar Topo.client2.udp 	sentPk:sum(packetBytes) 	56610
attr interpolationmode  none
attr source  sentPk
attr title  "packets sent, sum(packetBytes)"
statistic Topo.client3.networkLayer.ip 	hops:stats
field count 0
field mean -nan
field stddev -nan
field sum 0
field sqrsum 0
field min -nan
field max -nan
attr interpolationmode  none
attr source  hops
attr title  "Hops number, stats"
scalar Topo.client3.networkLayer.arp 	failedARPResolution:count 	0
attr title  "ARP failed resolutions, count"
scalar Topo.client3.networkLayer.arp 	completedARPResolution:count 	1
attr title  "ARP completed resolutions, count"
scalar Topo.client3.networkLayer.arp 	initiatedARPResolution:count 	1
attr title  "ARP initiated resolutions, count"
scalar Topo.client3.networkLayer.arp 	sentReply:count 	0
attr title  "ARP replies sent, count"
scalar Topo.client3.networkLayer.arp 	sentReq:count 	1
attr title  "ARP request sent, count"
scalar Topo.client3.lo0.lo 	droppedPkBitError:count 	0
attr interpolationmode  none
attr source  dropPkBitError
attr title  "packets dropped/bit error, count"
scalar Topo.client3.lo0.lo 	droppedPkBitError:sum(packetBytes) 	0
attr interpolationmode  none
attr source  dropPkBitError
attr title  "packets dropped/bit error, sum(packetBytes)"
scalar Topo.client3.lo0.lo 	rcvdPkFromHL:count 	0
attr interpolationmode  none
attr source  packetReceivedFromUpper
attr title  "packets received from higher layer, count"
scalar Topo.client3.lo0.lo 	rcvdPkFromHL:sum(packetBytes) 	0
attr interpolationmode  none
attr source  packetReceivedFromUpper
attr title  "packets received from higher layer, sum(packetBytes)"
scalar Topo.client3.lo0.lo 	passedUpPk:count 	0
attr interpolationmode  none
attr source  packetSentToUpper
attr title  "packets passed to higher layer, count"
scalar Topo.client3.lo0.lo 	passedUpPk:sum(packetBytes) 	0
attr interpolationmode  none
attr source  packetSentToUpper
attr title  "packets passed to higher layer, sum(packetBytes)"
scalar Topo.client3.eth[0].mac 	"simulated time" 	27.574999999745
scalar Topo.client3.eth[0].mac 	full-duplex 	1
scalar Topo.client3.eth[0].mac 	"frames/sec sent" 	1.9945602901363
scalar Topo.client3.eth[0].mac 	"frames/sec rcvd" 	0.14505893019173
scalar Topo.client3.eth[0].mac 	"bits/sec sent" 	5667.7425204513
scalar Topo.client3.eth[0].mac 	"bits/sec rcvd" 	74.270172258166
scalar Topo.client3.eth[0].mac 	"rx channel idle (%)" 	99.999916446056
scalar Topo.client3.eth[0].mac 	"rx channel utilization (%)" 	8.3553943790437e-05
scalar Topo.client3.eth[0].mac 	droppedPkNotForUs:count 	0
attr interpolationmode  none
attr source  dropPkNotForUs
attr title  "packets dropped/not for us, count"
scalar Topo.client3.eth[0].mac 	droppedPkNotForUs:sum(packetBytes) 	0
attr interpolationmode  none
attr source  dropPkNotForUs
attr title  "packets dropped/not for us, sum(packetBytes)"
scalar Topo.client3.eth[0].mac 	droppedPkIfaceDown:count 	0
attr interpolationmode  none
attr source  dropPkIfaceDown
attr title  "packets dropped/interface down, count"
scalar Topo.client3.eth[0].mac 	droppedPkIfaceDown:sum(packetBytes) 	0
attr interpolationmode  none
attr source  dropPkIfaceDown
attr title  "packets dropped/interface down, sum(packetBytes)"
scalar Topo.client3.eth[0].mac 	droppedPkBitError:count 	0
attr interpolationmode  none
attr source  dropPkBitError
attr title  "packets dropped/bit error, count"
scalar Topo.client3.eth[0].mac 	droppedPkBitError:sum(packetBytes) 	0
attr interpolationmode  none
attr source  dropPkBitError
attr title  "packets dropped/bit error, sum(packetBytes)"
scalar Topo.client3.eth[0].mac 	rxPkFromHL:count 	55
attr interpolationmode  none
attr source  rxPkFromHL
attr title  "packet bytes from higher layer, count"
scalar Topo.client3.eth[0].mac 	rxPkFromHL:sum(packetBytes) 	19536
attr interpolationmode  none
attr source  rxPkFromHL
attr title  "packet bytes from higher layer, sum(packetBytes)"
scalar Topo.client3.eth[0].mac 	rxPausePkUnits:count 	0
attr interpolationmode  none
attr title  "pause units received, count"
scalar Topo.client3.eth[0].mac 	rxPausePkUnits:sum 	0
attr interpolationmode  none
attr title  "pause units received, sum"
scalar Topo.client3.eth[0].mac 	txPausePkUnits:count 	0
attr interpolationmode  none
attr title  "pause units sent, count"
scalar Topo.client3.eth[0].mac 	txPausePkUnits:sum 	0
attr interpolationmode  none
attr title  "pause units sent, sum"
scalar Topo.client3.eth[0].mac 	rxPkOk:count 	4
attr interpolationmode  none
attr source  rxPkOk
attr title  "packets received OK, count"
scalar Topo.client3.eth[0].mac 	rxPkOk:sum(packetBytes) 	256
attr interpolationmode  none
attr source  rxPkOk
attr title  "packets received OK, sum(packetBytes)"
scalar Topo.client3.eth[0].mac 	txPk:count 	55
attr interpolationmode  none
attr source  txPk
attr title  "packets transmitted, count"
scalar Topo.client3.eth[0].mac 	txPk:sum(packetBytes) 	19536
attr interpolationmode  none
attr source  txPk
attr title  "packets transmitted, sum(packetBytes)"
scalar Topo.client3.eth[0].mac 	passedUpPk:count 	4
attr interpolationmode  none
attr source  packetSentToUpper
attr title  "packets passed to higher layer, count"
scalar Topo.client3.eth[0].mac 	passedUpPk:sum(packetBytes) 	256
attr interpolationmode  none
attr source  packetSentToUpper
attr title  "packets passed to higher layer, sum(packetBytes)"
scalar Topo.client3.eth[0].encap 	pauseSent:count 	0
attr title  "pause sent, count"
scalar Topo.client3.eth[0].encap 	pauseSent:sum 	0
attr title  "pause sent, sum"
scalar Topo.client3.eth[0].encap 	decapPk:count 	4
attr interpolationmode  none
attr source  decapPk
attr title  "packets decapsulated, count"
scalar Topo.client3.eth[0].encap 	decapPk:sum(packetBytes) 	112
attr interpolationmode  none
attr source  decapPk
attr title  "packets decapsulated, sum(packetBytes)"
scalar Topo.client3.eth[0].encap 	encapPk:count 	55
attr interpolationmode  none
attr source  encapPk
attr title  "packets encapsulated, count"
scalar Topo.client3.eth[0].encap 	encapPk:sum(packetBytes) 	17831
attr interpolationmode  none
attr source  encapPk
attr title  "packets encapsulated, sum(packetBytes)"
scalar Topo.client3.udpApp[0] 	"packets sent" 	13
scalar Topo.client3.udpApp[0] 	"packets received" 	0
scalar Topo.client3.udpApp[0] 	rcvdPk:count 	0
attr interpolationmode  none
attr source  rcvdPk
attr title  "packets received, count"
scalar Topo.client3.udpApp[0] 	rcvdPk:sum(packetBytes) 	0
attr interpolationmode  none
attr source  rcvdPk
attr title  "packets received, sum(packetBytes)"
statistic Topo.client3.udpApp[0] 	rcvdPkLifetime:stats
field count 0
field mean -nan
field stddev -nan
field sum 0
field sqrsum 0
field min -nan
field max -nan
attr interpolationmode  none
attr source  messageAge(rcvdPk)
attr title  "received packet lifetime, stats"
attr unit  s
scalar Topo.client3.udpApp[0] 	sentPk:count 	13
attr interpolationmode  none
attr source  sentPk
attr title  "packets sent, count"
scalar Topo.client3.udpApp[0] 	sentPk:sum(packetBytes) 	16250
attr interpolationmode  none
attr source  sentPk
attr title  "packets sent, sum(packetBytes)"
scalar Topo.client3.udp 	droppedPkBadChecksum:count 	0
attr interpolationmode  none
attr title  "packets dropped (checksum error), count"
scalar Topo.client3.udp 	droppedPkWrongPort:count 	0
attr interpolationmode  none
attr title  "packets dropped (wrong port), count"
scalar Topo.client3.udp 	passedUpPk:count 	0
attr interpolationmode  none
attr title  "packets passed up, count"
scalar Topo.client3.udp 	rcvdPk:count 	0
attr interpolationmode  none
attr source  rcvdPk
attr title  "packets received, count"
scalar Topo.client3.udp 	rcvdPk:sum(packetBytes) 	0
attr interpolationmode  none
attr source  rcvdPk
attr title  "packets received, sum(packetBytes)"
statistic Topo.client3.udp 	rcvdPkLifetime:stats
field count 0
field mean -nan
field stddev -nan
field sum 0
field sqrsum 0
field min -nan
field max -nan
attr interpolationmode  none
attr source  messageAge(rcvdPk)
attr title  "received packet lifetime, stats"
attr unit  s
scalar Topo.client3.udp 	sentPk:count 	317
attr interpolationmode  none
attr source  sentPk
attr title  "packets sent, count"
scalar Topo.client3.udp 	sentPk:sum(packetBytes) 	19090
attr interpolationmode  none
attr source  sentPk
attr title  "packets sent, sum(packetBytes)"
statistic Topo.client4.networkLayer.ip 	hops:stats
field count 0
field mean -nan
field stddev -nan
field sum 0
field sqrsum 0
field min -nan
field max -nan
attr interpolationmode  none
attr source  hops
attr title  "Hops number, stats"
scalar Topo.client4.networkLayer.arp 	failedARPResolution:count 	0
attr title  "ARP failed resolutions, count"
scalar Topo.client4.networkLayer.arp 	completedARPResolution:count 	1
attr title  "ARP completed resolutions, count"
scalar Topo.client4.networkLayer.arp 	initiatedARPResolution:count 	1
attr title  "ARP initiated resolutions, count"
scalar Topo.client4.networkLayer.arp 	sentReply:count 	0
attr title  "ARP replies sent, count"
scalar Topo.client4.networkLayer.arp 	sentReq:count 	1
attr title  "ARP request sent, count"
scalar Topo.client4.lo0.lo 	droppedPkBitError:count 	0
attr interpolationmode  none
attr source  dropPkBitError
attr title  "packets dropped/bit error, count"
scalar Topo.client4.lo0.lo 	droppedPkBitError:sum(packetBytes) 	0
attr interpolationmode  none
attr source  dropPkBitError
attr title  "packets dropped/bit error, sum(packetBytes)"
scalar Topo.client4.lo0.lo 	rcvdPkFromHL:count 	0
attr interpolationmode  none
attr source  packetReceivedFromUpper
attr title  "packets received from higher layer, count"
scalar Topo.client4.lo0.lo 	rcvdPkFromHL:sum(packetBytes) 	0
attr interpolationmode  none
attr source  packetReceivedFromUpper
attr title  "packets received from higher layer, sum(packetBytes)"
scalar Topo.client4.lo0.lo 	passedUpPk:count 	0
attr interpolationmode  none
attr source  packetSentToUpper
attr title  "packets passed to higher layer, count"
scalar Topo.client4.lo0.lo 	passedUpPk:sum(packetBytes) 	0
attr interpolationmode  none
attr source  packetSentToUpper
attr title  "packets passed to higher layer, sum(packetBytes)"
scalar Topo.client4.eth[0].mac 	"simulated time" 	27.574999999745
scalar Topo.client4.eth[0].mac 	full-duplex 	1
scalar Topo.client4.eth[0].mac 	"frames/sec sent" 	5.0045330916147
scalar Topo.client4.eth[0].mac 	"frames/sec rcvd" 	0.14505893019173
scalar Topo.client4.eth[0].mac 	"bits/sec sent" 	51529.573889869
scalar Topo.client4.eth[0].mac 	"bits/sec rcvd" 	74.270172258166
scalar Topo.client4.eth[0].mac 	"rx channel idle (%)" 	99.999916446056
scalar Topo.client4.eth[0].mac 	"rx channel utilization (%)" 	8.3553943790437e-05
scalar Topo.client4.eth[0].mac 	droppedPkNotForUs:count 	0
attr interpolationmode  none
attr source  dropPkNotForUs
attr title  "packets dropped/not for us, count"
scalar Topo.client4.eth[0].mac 	droppedPkNotForUs:sum(packetBytes) 	0
attr interpolationmode  none
attr source  dropPkNotForUs
attr title  "packets dropped/not for us, sum(packetBytes)"
scalar Topo.client4.eth[0].mac 	droppedPkIfaceDown:count 	0
attr interpolationmode  none
attr source  dropPkIfaceDown
attr title  "packets dropped/interface down, count"
scalar Topo.client4.eth[0].mac 	droppedPkIfaceDown:sum(packetBytes) 	0
attr interpolationmode  none
attr source  dropPkIfaceDown
attr title  "packets dropped/interface down, sum(packetBytes)"
scalar Topo.client4.eth[0].mac 	droppedPkBitError:count 	0
attr interpolationmode  none
attr source  dropPkBitError
attr title  "packets dropped/bit error, count"
scalar Topo.client4.eth[0].mac 	droppedPkBitError:sum(packetBytes) 	0
attr interpolationmode  none
attr source  dropPkBitError
attr title  "packets dropped/bit error, sum(packetBytes)"
scalar Topo.client4.eth[0].mac 	rxPkFromHL:count 	138
attr interpolationmode  none
attr source  rxPkFromHL
attr title  "packet bytes from higher layer, count"
scalar Topo.client4.eth[0].mac 	rxPkFromHL:sum(packetBytes) 	177616
attr interpolationmode  none
attr source  rxPkFromHL
attr title  "packet bytes from higher layer, sum(packetBytes)"
scalar Topo.client4.eth[0].mac 	rxPausePkUnits:count 	0
attr interpolationmode  none
attr title  "pause units received, count"
scalar Topo.client4.eth[0].mac 	rxPausePkUnits:sum 	0
attr interpolationmode  none
attr title  "pause units received, sum"
scalar Topo.client4.eth[0].mac 	txPausePkUnits:count 	0
attr interpolationmode  none
attr title  "pause units sent, count"
scalar Topo.client4.eth[0].mac 	txPausePkUnits:sum 	0
attr interpolationmode  none
attr title  "pause units sent, sum"
scalar Topo.client4.eth[0].mac 	rxPkOk:count 	4
attr interpolationmode  none
attr source  rxPkOk
attr title  "packets received OK, count"
scalar Topo.client4.eth[0].mac 	rxPkOk:sum(packetBytes) 	256
attr interpolationmode  none
attr source  rxPkOk
attr title  "packets received OK, sum(packetBytes)"
scalar Topo.client4.eth[0].mac 	txPk:count 	138
attr interpolationmode  none
attr source  txPk
attr title  "packets transmitted, count"
scalar Topo.client4.eth[0].mac 	txPk:sum(packetBytes) 	177616
attr interpolationmode  none
attr source  txPk
attr title  "packets transmitted, sum(packetBytes)"
scalar Topo.client4.eth[0].mac 	passedUpPk:count 	4
attr interpolationmode  none
attr source  packetSentToUpper
attr title  "packets passed to higher layer, count"
scalar Topo.client4.eth[0].mac 	passedUpPk:sum(packetBytes) 	256
attr interpolationmode  none
attr source  packetSentToUpper
attr title  "packets passed to higher layer, sum(packetBytes)"
scalar Topo.client4.eth[0].encap 	pauseSent:count 	0
attr title  "pause sent, count"
scalar Topo.client4.eth[0].encap 	pauseSent:sum 	0
attr title  "pause sent, sum"
scalar Topo.client4.eth[0].encap 	decapPk:count 	4
attr interpolationmode  none
attr source  decapPk
attr title  "packets decapsulated, count"
scalar Topo.client4.eth[0].encap 	decapPk:sum(packetBytes) 	112
attr interpolationmode  none
attr source  decapPk
attr title  "packets decapsulated, sum(packetBytes)"
scalar Topo.client4.eth[0].encap 	encapPk:count 	138
attr interpolationmode  none
attr source  encapPk
attr title  "packets encapsulated, count"
scalar Topo.client4.eth[0].encap 	encapPk:sum(packetBytes) 	175114
attr interpolationmode  none
attr source  encapPk
attr title  "packets encapsulated, sum(packetBytes)"
scalar Topo.client4.udpApp[0] 	"packets sent" 	137
scalar Topo.client4.udpApp[0] 	"packets received" 	0
scalar Topo.client4.udpApp[0] 	rcvdPk:count 	0
attr interpolationmode  none
attr source  rcvdPk
attr title  "packets received, count"
scalar Topo.client4.udpApp[0] 	rcvdPk:sum(packetBytes) 	0
attr interpolationmode  none
attr source  rcvdPk
attr title  "packets received, sum(packetBytes)"
statistic Topo.client4.udpApp[0] 	rcvdPkLifetime:stats
field count 0
field mean -nan
field stddev -nan
field sum 0
field sqrsum 0
field min -nan
field max -nan
attr interpolationmode  none
attr source  messageAge(rcvdPk)
attr title  "received packet lifetime, stats"
attr unit  s
scalar Topo.client4.udpApp[0] 	sentPk:count 	137
attr interpolationmode  none
attr source  sentPk
attr title  "packets sent, count"
scalar Topo.client4.udpApp[0] 	sentPk:sum(packetBytes) 	171250
attr interpolationmode  none
attr source  sentPk
attr title  "packets sent, sum(packetBytes)"
scalar Topo.client4.udp 	droppedPkBadChecksum:count 	0
attr interpolationmode  none
attr title  "packets dropped (checksum error), count"
scalar Topo.client4.udp 	droppedPkWrongPort:count 	0
attr interpolationmode  none
attr title  "packets dropped (wrong port), count"
scalar Topo.client4.udp 	passedUpPk:count 	0
attr interpolationmode  none
attr title  "packets passed up, count"
scalar Topo.client4.udp 	rcvdPk:count 	0
attr interpolationmode  none
attr source  rcvdPk
attr title  "packets received, count"
scalar Topo.client4.udp 	rcvdPk:sum(packetBytes) 	0
attr interpolationmode  none
attr source  rcvdPk
attr title  "packets received, sum(packetBytes)"
statistic Topo.client4.udp 	rcvdPkLifetime:stats
field count 0
field mean -nan
field stddev -nan
field sum 0
field sqrsum 0
field min -nan
field max -nan
attr interpolationmode  none
attr source  messageAge(rcvdPk)
attr title  "received packet lifetime, stats"
attr unit  s
scalar Topo.client4.udp 	sentPk:count 	137
attr interpolationmode  none
attr source  sentPk
attr title  "packets sent, count"
scalar Topo.client4.udp 	sentPk:sum(packetBytes) 	172346
attr interpolationmode  none
attr source  sentPk
attr title  "packets sent, sum(packetBytes)"
statistic Topo.server1.networkLayer.ip 	hops:stats
field count 0
field mean -nan
field stddev -nan
field sum 0
field sqrsum 0
field min -nan
field max -nan
attr interpolationmode  none
attr source  hops
attr title  "Hops number, stats"
scalar Topo.server1.networkLayer.arp 	failedARPResolution:count 	0
attr title  "ARP failed resolutions, count"
scalar Topo.server1.networkLayer.arp 	completedARPResolution:count 	1
attr title  "ARP completed resolutions, count"
scalar Topo.server1.networkLayer.arp 	initiatedARPResolution:count 	0
attr title  "ARP initiated resolutions, count"
scalar Topo.server1.networkLayer.arp 	sentReply:count 	1
attr title  "ARP replies sent, count"
scalar Topo.server1.networkLayer.arp 	sentReq:count 	0
attr title  "ARP request sent, count"
scalar Topo.server1.lo0.lo 	droppedPkBitError:count 	0
attr interpolationmode  none
attr source  dropPkBitError
attr title  "packets dropped/bit error, count"
scalar Topo.server1.lo0.lo 	droppedPkBitError:sum(packetBytes) 	0
attr interpolationmode  none
attr source  dropPkBitError
attr title  "packets dropped/bit error, sum(packetBytes)"
scalar Topo.server1.lo0.lo 	rcvdPkFromHL:count 	0
attr interpolationmode  none
attr source  packetReceivedFromUpper
attr title  "packets received from higher layer, count"
scalar Topo.server1.lo0.lo 	rcvdPkFromHL:sum(packetBytes) 	0
attr interpolationmode  none
attr source  packetReceivedFromUpper
attr title  "packets received from higher layer, sum(packetBytes)"
scalar Topo.server1.lo0.lo 	passedUpPk:count 	0
attr interpolationmode  none
attr source  packetSentToUpper
attr title  "packets passed to higher layer, count"
scalar Topo.server1.lo0.lo 	passedUpPk:sum(packetBytes) 	0
attr interpolationmode  none
attr source  packetSentToUpper
attr title  "packets passed to higher layer, sum(packetBytes)"
scalar Topo.server1.eth[0].mac 	"simulated time" 	27.574999999745
scalar Topo.server1.eth[0].mac 	full-duplex 	1
scalar Topo.server1.eth[0].mac 	"frames/sec sent" 	0.036264732547933
scalar Topo.server1.eth[0].mac 	"frames/sec rcvd" 	10.117860380873
scalar Topo.server1.eth[0].mac 	"bits/sec sent" 	18.567543064542
scalar Topo.server1.eth[0].mac 	"bits/sec rcvd" 	103472.27561292
scalar Topo.server1.eth[0].mac 	"rx channel idle (%)" 	99.895880181323
scalar Topo.server1.eth[0].mac 	"rx channel utilization (%)" 	0.1041198186773
scalar Topo.server1.eth[0].mac 	droppedPkNotForUs:count 	0
attr interpolationmode  none
attr source  dropPkNotForUs
attr title  "packets dropped/not for us, count"
scalar Topo.server1.eth[0].mac 	droppedPkNotForUs:sum(packetBytes) 	0
attr interpolationmode  none
attr source  dropPkNotForUs
attr title  "packets dropped/not for us, sum(packetBytes)"
scalar Topo.server1.eth[0].mac 	droppedPkIfaceDown:count 	0
attr interpolationmode  none
attr source  dropPkIfaceDown
attr title  "packets dropped/interface down, count"
scalar Topo.server1.eth[0].mac 	droppedPkIfaceDown:sum(packetBytes) 	0
attr interpolationmode  none
attr source  dropPkIfaceDown
attr title  "packets dropped/interface down, sum(packetBytes)"
scalar Topo.server1.eth[0].mac 	droppedPkBitError:count 	0
attr interpolationmode  none
attr source  dropPkBitError
attr title  "packets dropped/bit error, count"
scalar Topo.server1.eth[0].mac 	droppedPkBitError:sum(packetBytes) 	0
attr interpolationmode  none
attr source  dropPkBitError
attr title  "packets dropped/bit error, sum(packetBytes)"
scalar Topo.server1.eth[0].mac 	rxPkFromHL:count 	1
attr interpolationmode  none
attr source  rxPkFromHL
attr title  "packet bytes from higher layer, count"
scalar Topo.server1.eth[0].mac 	rxPkFromHL:sum(packetBytes) 	64
attr interpolationmode  none
attr source  rxPkFromHL
attr title  "packet bytes from higher layer, sum(packetBytes)"
scalar Topo.server1.eth[0].mac 	rxPausePkUnits:count 	0
attr interpolationmode  none
attr title  "pause units received, count"
scalar Topo.server1.eth[0].mac 	rxPausePkUnits:sum 	0
attr interpolationmode  none
attr title  "pause units received, sum"
scalar Topo.server1.eth[0].mac 	txPausePkUnits:count 	0
attr interpolationmode  none
attr title  "pause units sent, count"
scalar Topo.server1.eth[0].mac 	txPausePkUnits:sum 	0
attr interpolationmode  none
attr title  "pause units sent, sum"
scalar Topo.server1.eth[0].mac 	rxPkOk:count 	279
attr interpolationmode  none
attr source  rxPkOk
attr title  "packets received OK, count"
scalar Topo.server1.eth[0].mac 	rxPkOk:sum(packetBytes) 	356656
attr interpolationmode  none
attr source  rxPkOk
attr title  "packets received OK, sum(packetBytes)"
scalar Topo.server1.eth[0].mac 	txPk:count 	1
attr interpolationmode  none
attr source  txPk
attr title  "packets transmitted, count"
scalar Topo.server1.eth[0].mac 	txPk:sum(packetBytes) 	64
attr interpolationmode  none
attr source  txPk
attr title  "packets transmitted, sum(packetBytes)"
scalar Topo.server1.eth[0].mac 	passedUpPk:count 	279
attr interpolationmode  none
attr source  packetSentToUpper
attr title  "packets passed to higher layer, count"
scalar Topo.server1.eth[0].mac 	passedUpPk:sum(packetBytes) 	356656
attr interpolationmode  none
attr source  packetSentToUpper
attr title  "packets passed to higher layer, sum(packetBytes)"
scalar Topo.server1.eth[0].encap 	pauseSent:count 	0
attr title  "pause sent, count"
scalar Topo.server1.eth[0].encap 	pauseSent:sum 	0
attr title  "pause sent, sum"
scalar Topo.server1.eth[0].encap 	decapPk:count 	279
attr interpolationmode  none
attr source  decapPk
attr title  "packets decapsulated, count"
scalar Topo.server1.eth[0].encap 	decapPk:sum(packetBytes) 	351562
attr interpolationmode  none
attr source  decapPk
attr title  "packets decapsulated, sum(packetBytes)"
scalar Topo.server1.eth[0].encap 	encapPk:count 	1
attr interpolationmode  none
attr source  encapPk
attr title  "packets encapsulated, count"
scalar Topo.server1.eth[0].encap 	encapPk:sum(packetBytes) 	28
attr interpolationmode  none
attr source  encapPk
attr title  "packets encapsulated, sum(packetBytes)"
scalar Topo.server1.udpApp[0] 	rcvdPk:count 	275
attr interpolationmode  none
attr source  rcvdPk
attr title  "packets received, count"
scalar Topo.server1.udpApp[0] 	rcvdPk:sum(packetBytes) 	343750
attr interpolationmode  none
attr source  rcvdPk
attr title  "packets received, sum(packetBytes)"
scalar Topo.server1.udp 	droppedPkBadChecksum:count 	0
attr interpolationmode  none
attr title  "packets dropped (checksum error), count"
scalar Topo.server1.udp 	droppedPkWrongPort:count 	0
attr interpolationmode  none
attr title  "packets dropped (wrong port), count"
scalar Topo.server1.udp 	passedUpPk:count 	275
attr interpolationmode  none
attr title  "packets passed up, count"
scalar Topo.server1.udp 	rcvdPk:count 	275
attr interpolationmode  none
attr source  rcvdPk
attr title  "packets received, count"
scalar Topo.server1.udp 	rcvdPk:sum(packetBytes) 	345950
attr interpolationmode  none
attr source  rcvdPk
attr title  "packets received, sum(packetBytes)"
statistic Topo.server1.udp 	rcvdPkLifetime:stats
field count 275
field mean 0.00056860886255273
field stddev 0.00011433789670645
field sum 0.156367437202
field sqrsum 9.2493954974486e-05
field min 0.000469119994
field max 0.000897279976
attr interpolationmode  none
attr source  messageAge(rcvdPk)
attr title  "received packet lifetime, stats"
attr unit  s
scalar Topo.server1.udp 	sentPk:count 	0
attr interpolationmode  none
attr source  sentPk
attr title  "packets sent, count"
scalar Topo.server1.udp 	sentPk:sum(packetBytes) 	0
attr interpolationmode  none
attr source  sentPk
attr title  "packets sent, sum(packetBytes)"
statistic Topo.server2.networkLayer.ip 	hops:stats
field count 0
field mean -nan
field stddev -nan
field sum 0
field sqrsum 0
field min -nan
field max -nan
attr interpolationmode  none
attr source  hops
attr title  "Hops number, stats"
scalar Topo.server2.networkLayer.arp 	failedARPResolution:count 	0
attr title  "ARP failed resolutions, count"
scalar Topo.server2.networkLayer.arp 	completedARPResolution:count 	2
attr title  "ARP completed resolutions, count"
scalar Topo.server2.networkLayer.arp 	initiatedARPResolution:count 	0
attr title  "ARP initiated resolutions, count"
scalar Topo.server2.networkLayer.arp 	sentReply:count 	2
attr title  "ARP replies sent, count"
scalar Topo.server2.networkLayer.arp 	sentReq:count 	0
attr title  "ARP request sent, count"
scalar Topo.server2.lo0.lo 	droppedPkBitError:count 	0
attr interpolationmode  none
attr source  dropPkBitError
attr title  "packets dropped/bit error, count"
scalar Topo.server2.lo0.lo 	droppedPkBitError:sum(packetBytes) 	0
attr interpolationmode  none
attr source  dropPkBitError
attr title  "packets dropped/bit error, sum(packetBytes)"
scalar Topo.server2.lo0.lo 	rcvdPkFromHL:count 	0
attr interpolationmode  none
attr source  packetReceivedFromUpper
attr title  "packets received from higher layer, count"
scalar Topo.server2.lo0.lo 	rcvdPkFromHL:sum(packetBytes) 	0
attr interpolationmode  none
attr source  packetReceivedFromUpper
attr title  "packets received from higher layer, sum(packetBytes)"
scalar Topo.server2.lo0.lo 	passedUpPk:count 	0
attr interpolationmode  none
attr source  packetSentToUpper
attr title  "packets passed to higher layer, count"
scalar Topo.server2.lo0.lo 	passedUpPk:sum(packetBytes) 	0
attr interpolationmode  none
attr source  packetSentToUpper
attr title  "packets passed to higher layer, sum(packetBytes)"
scalar Topo.server2.eth[0].mac 	"simulated time" 	27.574999999745
scalar Topo.server2.eth[0].mac 	full-duplex 	1
scalar Topo.server2.eth[0].mac 	"frames/sec sent" 	0.072529465095866
scalar Topo.server2.eth[0].mac 	"frames/sec rcvd" 	3.7352674524371
scalar Topo.server2.eth[0].mac 	"bits/sec sent" 	37.135086129083
scalar Topo.server2.eth[0].mac 	"bits/sec rcvd" 	22643.118767208
scalar Topo.server2.eth[0].mac 	"rx channel idle (%)" 	99.977117824116
scalar Topo.server2.eth[0].mac 	"rx channel utilization (%)" 	0.022882175884164
scalar Topo.server2.eth[0].mac 	droppedPkNotForUs:count 	0
attr interpolationmode  none
attr source  dropPkNotForUs
attr title  "packets dropped/not for us, count"
scalar Topo.server2.eth[0].mac 	droppedPkNotForUs:sum(packetBytes) 	0
attr interpolationmode  none
attr source  dropPkNotForUs
attr title  "packets dropped/not for us, sum(packetBytes)"
scalar Topo.server2.eth[0].mac 	droppedPkIfaceDown:count 	0
attr interpolationmode  none
attr source  dropPkIfaceDown
attr title  "packets dropped/interface down, count"
scalar Topo.server2.eth[0].mac 	droppedPkIfaceDown:sum(packetBytes) 	0
attr interpolationmode  none
attr source  dropPkIfaceDown
attr title  "packets dropped/interface down, sum(packetBytes)"
scalar Topo.server2.eth[0].mac 	droppedPkBitError:count 	0
attr interpolationmode  none
attr source  dropPkBitError
attr title  "packets dropped/bit error, count"
scalar Topo.server2.eth[0].mac 	droppedPkBitError:sum(packetBytes) 	0
attr interpolationmode  none
attr source  dropPkBitError
attr title  "packets dropped/bit error, sum(packetBytes)"
scalar Topo.server2.eth[0].mac 	rxPkFromHL:count 	2
attr interpolationmode  none
attr source  rxPkFromHL
attr title  "packet bytes from higher layer, count"
scalar Topo.server2.eth[0].mac 	rxPkFromHL:sum(packetBytes) 	128
attr interpolationmode  none
attr source  rxPkFromHL
attr title  "packet bytes from higher layer, sum(packetBytes)"
scalar Topo.server2.eth[0].mac 	rxPausePkUnits:count 	0
attr interpolationmode  none
attr title  "pause units received, count"
scalar Topo.server2.eth[0].mac 	rxPausePkUnits:sum 	0
attr interpolationmode  none
attr title  "pause units received, sum"
scalar Topo.server2.eth[0].mac 	txPausePkUnits:count 	0
attr interpolationmode  none
attr title  "pause units sent, count"
scalar Topo.server2.eth[0].mac 	txPausePkUnits:sum 	0
attr interpolationmode  none
attr title  "pause units sent, sum"
scalar Topo.server2.eth[0].mac 	rxPkOk:count 	103
attr interpolationmode  none
attr source  rxPkOk
attr title  "packets received OK, count"
scalar Topo.server2.eth[0].mac 	rxPkOk:sum(packetBytes) 	78048
attr interpolationmode  none
attr source  rxPkOk
attr title  "packets received OK, sum(packetBytes)"
scalar Topo.server2.eth[0].mac 	txPk:count 	2
attr interpolationmode  none
attr source  txPk
attr title  "packets transmitted, count"
scalar Topo.server2.eth[0].mac 	txPk:sum(packetBytes) 	128
attr interpolationmode  none
attr source  txPk
attr title  "packets transmitted, sum(packetBytes)"
scalar Topo.server2.eth[0].mac 	passedUpPk:count 	103
attr interpolationmode  none
attr source  packetSentToUpper
attr title  "packets passed to higher layer, count"
scalar Topo.server2.eth[0].mac 	passedUpPk:sum(packetBytes) 	78048
attr interpolationmode  none
attr source  packetSentToUpper
attr title  "packets passed to higher layer, sum(packetBytes)"
scalar Topo.server2.eth[0].encap 	pauseSent:count 	0
attr title  "pause sent, count"
scalar Topo.server2.eth[0].encap 	pauseSent:sum 	0
attr title  "pause sent, sum"
scalar Topo.server2.eth[0].encap 	decapPk:count 	103
attr interpolationmode  none
attr source  decapPk
attr title  "packets decapsulated, count"
scalar Topo.server2.eth[0].encap 	decapPk:sum(packetBytes) 	75425
attr interpolationmode  none
attr source  decapPk
attr title  "packets decapsulated, sum(packetBytes)"
scalar Topo.server2.eth[0].encap 	encapPk:count 	2
attr interpolationmode  none
attr source  encapPk
attr title  "packets encapsulated, count"
scalar Topo.server2.eth[0].encap 	encapPk:sum(packetBytes) 	56
attr interpolationmode  none
attr source  encapPk
attr title  "packets encapsulated, sum(packetBytes)"
scalar Topo.server2.udpApp[0] 	rcvdPk:count 	99
attr interpolationmode  none
attr source  rcvdPk
attr title  "packets received, count"
scalar Topo.server2.udpApp[0] 	rcvdPk:sum(packetBytes) 	72541
attr interpolationmode  none
attr source  rcvdPk
attr title  "packets received, sum(packetBytes)"
scalar Topo.server2.udp 	droppedPkBadChecksum:count 	0
attr interpolationmode  none
attr title  "packets dropped (checksum error), count"
scalar Topo.server2.udp 	droppedPkWrongPort:count 	0
attr interpolationmode  none
attr title  "packets dropped (wrong port), count"
scalar Topo.server2.udp 	passedUpPk:count 	99
attr interpolationmode  none
attr title  "packets passed up, count"
scalar Topo.server2.udp 	rcvdPk:count 	99
attr interpolationmode  none
attr source  rcvdPk
attr title  "packets received, count"
scalar Topo.server2.udp 	rcvdPk:sum(packetBytes) 	73333
attr interpolationmode  none
attr source  rcvdPk
attr title  "packets received, sum(packetBytes)"
statistic Topo.server2.udp 	rcvdPkLifetime:stats
field count 99
field mean 0.00031274423788889
field stddev 0.00022310525577379
field sum 0.030961679551
field sqrsum 1.4561130480018e-05
field min 5.6719999e-05
field max 0.000754559982
attr interpolationmode  none
attr source  messageAge(rcvdPk)
attr title  "received packet lifetime, stats"
attr unit  s
scalar Topo.server2.udp 	sentPk:count 	0
attr interpolationmode  none
attr source  sentPk
attr title  "packets sent, count"
scalar Topo.server2.udp 	sentPk:sum(packetBytes) 	0
attr interpolationmode  none
attr source  sentPk
attr title  "packets sent, sum(packetBytes)"
statistic Topo.server3.networkLayer.ip 	hops:stats
field count 0
field mean -nan
field stddev -nan
field sum 0
field sqrsum 0
field min -nan
field max -nan
attr interpolationmode  none
attr source  hops
attr title  "Hops number, stats"
scalar Topo.server3.networkLayer.arp 	failedARPResolution:count 	0
attr title  "ARP failed resolutions, count"
scalar Topo.server3.networkLayer.arp 	completedARPResolution:count 	1
attr title  "ARP completed resolutions, count"
scalar Topo.server3.networkLayer.arp 	initiatedARPResolution:count 	0
attr title  "ARP initiated resolutions, count"
scalar Topo.server3.networkLayer.arp 	sentReply:count 	1
attr title  "ARP replies sent, count"
scalar Topo.server3.networkLayer.arp 	sentReq:count 	0
attr title  "ARP request sent, count"
scalar Topo.server3.lo0.lo 	droppedPkBitError:count 	0
attr interpolationmode  none
attr source  dropPkBitError
attr title  "packets dropped/bit error, count"
scalar Topo.server3.lo0.lo 	droppedPkBitError:sum(packetBytes) 	0
attr interpolationmode  none
attr source  dropPkBitError
attr title  "packets dropped/bit error, sum(packetBytes)"
scalar Topo.server3.lo0.lo 	rcvdPkFromHL:count 	0
attr interpolationmode  none
attr source  packetReceivedFromUpper
attr title  "packets received from higher layer, count"
scalar Topo.server3.lo0.lo 	rcvdPkFromHL:sum(packetBytes) 	0
attr interpolationmode  none
attr source  packetReceivedFromUpper
attr title  "packets received from higher layer, sum(packetBytes)"
scalar Topo.server3.lo0.lo 	passedUpPk:count 	0
attr interpolationmode  none
attr source  packetSentToUpper
attr title  "packets passed to higher layer, count"
scalar Topo.server3.lo0.lo 	passedUpPk:sum(packetBytes) 	0
attr interpolationmode  none
attr source  packetSentToUpper
attr title  "packets passed to higher layer, sum(packetBytes)"
scalar Topo.server3.eth[0].mac 	"simulated time" 	27.574999999745
scalar Topo.server3.eth[0].mac 	full-duplex 	1
scalar Topo.server3.eth[0].mac 	"frames/sec sent" 	0.036264732547933
scalar Topo.server3.eth[0].mac 	"frames/sec rcvd" 	5.1133272892585
scalar Topo.server3.eth[0].mac 	"bits/sec sent" 	18.567543064542
scalar Topo.server3.eth[0].mac 	"bits/sec rcvd" 	51585.276519063
scalar Topo.server3.eth[0].mac 	"rx channel idle (%)" 	99.948087470534
scalar Topo.server3.eth[0].mac 	"rx channel utilization (%)" 	0.051912529465575
scalar Topo.server3.eth[0].mac 	droppedPkNotForUs:count 	0
attr interpolationmode  none
attr source  dropPkNotForUs
attr title  "packets dropped/not for us, count"
scalar Topo.server3.eth[0].mac 	droppedPkNotForUs:sum(packetBytes) 	0
attr interpolationmode  none
attr source  dropPkNotForUs
attr title  "packets dropped/not for us, sum(packetBytes)"
scalar Topo.server3.eth[0].mac 	droppedPkIfaceDown:count 	0
attr interpolationmode  none
attr source  dropPkIfaceDown
attr title  "packets dropped/interface down, count"
scalar Topo.server3.eth[0].mac 	droppedPkIfaceDown:sum(packetBytes) 	0
attr interpolationmode  none
attr source  dropPkIfaceDown
attr title  "packets dropped/interface down, sum(packetBytes)"
scalar Topo.server3.eth[0].mac 	droppedPkBitError:count 	0
attr interpolationmode  none
attr source  dropPkBitError
attr title  "packets dropped/bit error, count"
scalar Topo.server3.eth[0].mac 	droppedPkBitError:sum(packetBytes) 	0
attr interpolationmode  none
attr source  dropPkBitError
attr title  "packets dropped/bit error, sum(packetBytes)"
scalar Topo.server3.eth[0].mac 	rxPkFromHL:count 	1
attr interpolationmode  none
attr source  rxPkFromHL
attr title  "packet bytes from higher layer, count"
scalar Topo.server3.eth[0].mac 	rxPkFromHL:sum(packetBytes) 	64
attr interpolationmode  none
attr source  rxPkFromHL
attr title  "packet bytes from higher layer, sum(packetBytes)"
scalar Topo.server3.eth[0].mac 	rxPausePkUnits:count 	0
attr interpolationmode  none
attr title  "pause units received, count"
scalar Topo.server3.eth[0].mac 	rxPausePkUnits:sum 	0
attr interpolationmode  none
attr title  "pause units received, sum"
scalar Topo.server3.eth[0].mac 	txPausePkUnits:count 	0
attr interpolationmode  none
attr title  "pause units sent, count"
scalar Topo.server3.eth[0].mac 	txPausePkUnits:sum 	0
attr interpolationmode  none
attr title  "pause units sent, sum"
scalar Topo.server3.eth[0].mac 	rxPkOk:count 	141
attr interpolationmode  none
attr source  rxPkOk
attr title  "packets received OK, count"
scalar Topo.server3.eth[0].mac 	rxPkOk:sum(packetBytes) 	177808
attr interpolationmode  none
attr source  rxPkOk
attr title  "packets received OK, sum(packetBytes)"
scalar Topo.server3.eth[0].mac 	txPk:count 	1
attr interpolationmode  none
attr source  txPk
attr title  "packets transmitted, count"
scalar Topo.server3.eth[0].mac 	txPk:sum(packetBytes) 	64
attr interpolationmode  none
attr source  txPk
attr title  "packets transmitted, sum(packetBytes)"
scalar Topo.server3.eth[0].mac 	passedUpPk:count 	141
attr interpolationmode  none
attr source  packetSentToUpper
attr title  "packets passed to higher layer, count"
scalar Topo.server3.eth[0].mac 	passedUpPk:sum(packetBytes) 	177808
attr interpolationmode  none
attr source  packetSentToUpper
attr title  "packets passed to higher layer, sum(packetBytes)"
scalar Topo.server3.eth[0].encap 	pauseSent:count 	0
attr title  "pause sent, count"
scalar Topo.server3.eth[0].encap 	pauseSent:sum 	0
attr title  "pause sent, sum"
scalar Topo.server3.eth[0].encap 	decapPk:count 	141
attr interpolationmode  none
attr source  decapPk
attr title  "packets decapsulated, count"
scalar Topo.server3.eth[0].encap 	decapPk:sum(packetBytes) 	175198
attr interpolationmode  none
attr source  decapPk
attr title  "packets decapsulated, sum(packetBytes)"
scalar Topo.server3.eth[0].encap 	encapPk:count 	1
attr interpolationmode  none
attr source  encapPk
attr title  "packets encapsulated, count"
scalar Topo.server3.eth[0].encap 	encapPk:sum(packetBytes) 	28
attr interpolationmode  none
attr source  encapPk
attr title  "packets encapsulated, sum(packetBytes)"
scalar Topo.server3.udpApp[0] 	rcvdPk:count 	137
attr interpolationmode  none
attr source  rcvdPk
attr title  "packets received, count"
scalar Topo.server3.udpApp[0] 	rcvdPk:sum(packetBytes) 	171250
attr interpolationmode  none
attr source  rcvdPk
attr title  "packets received, sum(packetBytes)"
scalar Topo.server3.udp 	droppedPkBadChecksum:count 	0
attr interpolationmode  none
attr title  "packets dropped (checksum error), count"
scalar Topo.server3.udp 	droppedPkWrongPort:count 	0
attr interpolationmode  none
attr title  "packets dropped (wrong port), count"
scalar Topo.server3.udp 	passedUpPk:count 	137
attr interpolationmode  none
attr title  "packets passed up, count"
scalar Topo.server3.udp 	rcvdPk:count 	137
attr interpolationmode  none
attr source  rcvdPk
attr title  "packets received, count"
scalar Topo.server3.udp 	rcvdPk:sum(packetBytes) 	172346
attr interpolationmode  none
attr source  rcvdPk
attr title  "packets received, sum(packetBytes)"
statistic Topo.server3.udp 	rcvdPkLifetime:stats
field count 137
field mean 0.00052745809373723
field stddev 7.8466883530805e-05
field sum 0.072261758842
field sqrsum 3.8952408615201e-05
field min 0.000469119994
field max 0.000754559982
attr interpolationmode  none
attr source  messageAge(rcvdPk)
attr title  "received packet lifetime, stats"
attr unit  s
scalar Topo.server3.udp 	sentPk:count 	0
attr interpolationmode  none
attr source  sentPk
attr title  "packets sent, count"
scalar Topo.server3.udp 	sentPk:sum(packetBytes) 	0
attr interpolationmode  none
attr source  sentPk
attr title  "packets sent, sum(packetBytes)"
statistic Topo.s1.networkLayer.ip 	hops:stats
field count 0
field mean -nan
field stddev -nan
field sum 0
field sqrsum 0
field min -nan
field max -nan
attr interpolationmode  none
attr source  hops
attr title  "Hops number, stats"
scalar Topo.s1.networkLayer.arp 	failedARPResolution:count 	0
attr title  "ARP failed resolutions, count"
scalar Topo.s1.networkLayer.arp 	completedARPResolution:count 	1
attr title  "ARP completed resolutions, count"
scalar Topo.s1.networkLayer.arp 	initiatedARPResolution:count 	1
attr title  "ARP initiated resolutions, count"
scalar Topo.s1.networkLayer.arp 	sentReply:count 	0
attr title  "ARP replies sent, count"
scalar Topo.s1.networkLayer.arp 	sentReq:count 	1
attr title  "ARP request sent, count"
scalar Topo.s1.eth[0].mac 	"simulated time" 	27.574999999745
scalar Topo.s1.eth[0].mac 	full-duplex 	1
scalar Topo.s1.eth[0].mac 	"frames/sec sent" 	117.60652765295
scalar Topo.s1.eth[0].mac 	"frames/sec rcvd" 	117.5702629204
scalar Topo.s1.eth[0].mac 	"bits/sec sent" 	235451.82230499
scalar Topo.s1.eth[0].mac 	"bits/sec rcvd" 	235489.8277447
scalar Topo.s1.eth[0].mac 	"rx channel idle (%)" 	99.756985675428
scalar Topo.s1.eth[0].mac 	"rx channel utilization (%)" 	0.2430143245716
scalar Topo.s1.eth[0].mac 	droppedPkNotForUs:count 	0
attr interpolationmode  none
attr source  dropPkNotForUs
attr title  "packets dropped/not for us, count"
scalar Topo.s1.eth[0].mac 	droppedPkNotForUs:sum(packetBytes) 	0
attr interpolationmode  none
attr source  dropPkNotForUs
attr title  "packets dropped/not for us, sum(packetBytes)"
scalar Topo.s1.eth[0].mac 	droppedPkIfaceDown:count 	0
attr interpolationmode  none
attr source  dropPkIfaceDown
attr title  "packets dropped/interface down, count"
scalar Topo.s1.eth[0].mac 	droppedPkIfaceDown:sum(packetBytes) 	0
attr interpolationmode  none
attr source  dropPkIfaceDown
attr title  "packets dropped/interface down, sum(packetBytes)"
scalar Topo.s1.eth[0].mac 	droppedPkBitError:count 	0
attr interpolationmode  none
attr source  dropPkBitError
attr title  "packets dropped/bit error, count"
scalar Topo.s1.eth[0].mac 	droppedPkBitError:sum(packetBytes) 	0
attr interpolationmode  none
attr source  dropPkBitError
attr title  "packets dropped/bit error, sum(packetBytes)"
scalar Topo.s1.eth[0].mac 	rxPkFromHL:count 	3243
attr interpolationmode  none
attr source  rxPkFromHL
attr title  "packet bytes from higher layer, count"
scalar Topo.s1.eth[0].mac 	rxPkFromHL:sum(packetBytes) 	811573
attr interpolationmode  none
attr source  rxPkFromHL
attr title  "packet bytes from higher layer, sum(packetBytes)"
scalar Topo.s1.eth[0].mac 	rxPausePkUnits:count 	0
attr interpolationmode  none
attr title  "pause units received, count"
scalar Topo.s1.eth[0].mac 	rxPausePkUnits:sum 	0
attr interpolationmode  none
attr title  "pause units received, sum"
scalar Topo.s1.eth[0].mac 	txPausePkUnits:count 	0
attr interpolationmode  none
attr title  "pause units sent, count"
scalar Topo.s1.eth[0].mac 	txPausePkUnits:sum 	0
attr interpolationmode  none
attr title  "pause units sent, sum"
scalar Topo.s1.eth[0].mac 	rxPkOk:count 	3242
attr interpolationmode  none
attr source  rxPkOk
attr title  "packets received OK, count"
scalar Topo.s1.eth[0].mac 	rxPkOk:sum(packetBytes) 	811704
attr interpolationmode  none
attr source  rxPkOk
attr title  "packets received OK, sum(packetBytes)"
scalar Topo.s1.eth[0].mac 	txPk:count 	3243
attr interpolationmode  none
attr source  txPk
attr title  "packets transmitted, count"
scalar Topo.s1.eth[0].mac 	txPk:sum(packetBytes) 	811573
attr interpolationmode  none
attr source  txPk
attr title  "packets transmitted, sum(packetBytes)"
scalar Topo.s1.eth[0].mac 	passedUpPk:count 	3242
attr interpolationmode  none
attr source  packetSentToUpper
attr title  "packets passed to higher layer, count"
scalar Topo.s1.eth[0].mac 	passedUpPk:sum(packetBytes) 	811704
attr interpolationmode  none
attr source  packetSentToUpper
attr title  "packets passed to higher layer, sum(packetBytes)"
scalar Topo.s1.eth[0].encap 	pauseSent:count 	0
attr title  "pause sent, count"
scalar Topo.s1.eth[0].encap 	pauseSent:sum 	0
attr title  "pause sent, sum"
scalar Topo.s1.eth[0].encap 	decapPk:count 	3242
attr interpolationmode  none
attr source  decapPk
attr title  "packets decapsulated, count"
scalar Topo.s1.eth[0].encap 	decapPk:sum(packetBytes) 	742963
attr interpolationmode  none
attr source  decapPk
attr title  "packets decapsulated, sum(packetBytes)"
scalar Topo.s1.eth[0].encap 	encapPk:count 	3243
attr interpolationmode  none
attr source  encapPk
attr title  "packets encapsulated, count"
scalar Topo.s1.eth[0].encap 	encapPk:sum(packetBytes) 	742488
attr interpolationmode  none
attr source  encapPk
attr title  "packets encapsulated, sum(packetBytes)"
scalar Topo.s1.etherMAC[0] 	"simulated time" 	27.574999999745
scalar Topo.s1.etherMAC[0] 	full-duplex 	1
scalar Topo.s1.etherMAC[0] 	"frames/sec sent" 	0.14505893019173
scalar Topo.s1.etherMAC[0] 	"frames/sec rcvd" 	10.009066183229
scalar Topo.s1.etherMAC[0] 	"bits/sec sent" 	74.270172258166
scalar Topo.s1.etherMAC[0] 	"bits/sec rcvd" 	103416.57298373
scalar Topo.s1.etherMAC[0] 	"rx channel idle (%)" 	99.895942846781
scalar Topo.s1.etherMAC[0] 	"rx channel utilization (%)" 	0.10405715321946
scalar Topo.s1.etherMAC[0] 	"rx channel collision (%)" 	0
scalar Topo.s1.etherMAC[0] 	collisions 	0
scalar Topo.s1.etherMAC[0] 	backoffs 	0
scalar Topo.s1.etherMAC[0] 	droppedPkNotForUs:count 	0
attr interpolationmode  none
attr source  dropPkNotForUs
attr title  "packets dropped/not for us, count"
scalar Topo.s1.etherMAC[0] 	droppedPkNotForUs:sum(packetBytes) 	0
attr interpolationmode  none
attr source  dropPkNotForUs
attr title  "packets dropped/not for us, sum(packetBytes)"
scalar Topo.s1.etherMAC[0] 	droppedPkIfaceDown:count 	0
attr interpolationmode  none
attr source  dropPkIfaceDown
attr title  "packets dropped/interface down, count"
scalar Topo.s1.etherMAC[0] 	droppedPkIfaceDown:sum(packetBytes) 	0
attr interpolationmode  none
attr source  dropPkIfaceDown
attr title  "packets dropped/interface down, sum(packetBytes)"
scalar Topo.s1.etherMAC[0] 	droppedPkBitError:count 	0
attr interpolationmode  none
attr source  dropPkBitError
attr title  "packets dropped/bit error, count"
scalar Topo.s1.etherMAC[0] 	droppedPkBitError:sum(packetBytes) 	0
attr interpolationmode  none
attr source  dropPkBitError
attr title  "packets dropped/bit error, sum(packetBytes)"
scalar Topo.s1.etherMAC[0] 	rxPkFromHL:count 	4
attr interpolationmode  none
attr source  rxPkFromHL
attr title  "packet bytes from higher layer, count"
scalar Topo.s1.etherMAC[0] 	rxPkFromHL:sum(packetBytes) 	256
attr interpolationmode  none
attr source  rxPkFromHL
attr title  "packet bytes from higher layer, sum(packetBytes)"
scalar Topo.s1.etherMAC[0] 	rxPausePkUnits:count 	0
attr interpolationmode  none
attr title  "pause units received, count"
scalar Topo.s1.etherMAC[0] 	rxPausePkUnits:sum 	0
attr interpolationmode  none
attr title  "pause units received, sum"
scalar Topo.s1.etherMAC[0] 	txPausePkUnits:count 	0
attr interpolationmode  none
attr title  "pause units sent, count"
scalar Topo.s1.etherMAC[0] 	txPausePkUnits:sum 	0
attr interpolationmode  none
attr title  "pause units sent, sum"
scalar Topo.s1.etherMAC[0] 	rxPkOk:count 	276
attr interpolationmode  none
attr source  rxPkOk
attr title  "packets received OK, count"
scalar Topo.s1.etherMAC[0] 	rxPkOk:sum(packetBytes) 	356464
attr interpolationmode  none
attr source  rxPkOk
attr title  "packets received OK, sum(packetBytes)"
scalar Topo.s1.etherMAC[0] 	txPk:count 	4
attr interpolationmode  none
attr source  txPk
attr title  "packets transmitted, count"
scalar Topo.s1.etherMAC[0] 	txPk:sum(packetBytes) 	256
attr interpolationmode  none
attr source  txPk
attr title  "packets transmitted, sum(packetBytes)"
scalar Topo.s1.etherMAC[0] 	backoff:count 	0
attr interpolationmode  none
attr title  "backoff, count"
scalar Topo.s1.etherMAC[0] 	collision:count 	0
attr interpolationmode  none
attr title  "collision, count"
scalar Topo.s1.etherMAC[0] 	passedUpPk:count 	276
attr interpolationmode  none
attr source  packetSentToUpper
attr title  "packets passed to higher layer, count"
scalar Topo.s1.etherMAC[0] 	passedUpPk:sum(packetBytes) 	356464
attr interpolationmode  none
attr source  packetSentToUpper
attr title  "packets passed to higher layer, sum(packetBytes)"
scalar Topo.s1.etherMAC[1] 	"simulated time" 	27.574999999745
scalar Topo.s1.etherMAC[1] 	full-duplex 	1
scalar Topo.s1.etherMAC[1] 	"frames/sec sent" 	0.14505893019173
scalar Topo.s1.etherMAC[1] 	"frames/sec rcvd" 	1.6681776972049
scalar Topo.s1.etherMAC[1] 	"bits/sec sent" 	74.270172258166
scalar Topo.s1.etherMAC[1] 	"bits/sec rcvd" 	16938.241160628
scalar Topo.s1.etherMAC[1] 	"rx channel idle (%)" 	99.982954995467
scalar Topo.s1.etherMAC[1] 	"rx channel utilization (%)" 	0.017045004533249
scalar Topo.s1.etherMAC[1] 	"rx channel collision (%)" 	0
scalar Topo.s1.etherMAC[1] 	collisions 	0
scalar Topo.s1.etherMAC[1] 	backoffs 	0
scalar Topo.s1.etherMAC[1] 	droppedPkNotForUs:count 	0
attr interpolationmode  none
attr source  dropPkNotForUs
attr title  "packets dropped/not for us, count"
scalar Topo.s1.etherMAC[1] 	droppedPkNotForUs:sum(packetBytes) 	0
attr interpolationmode  none
attr source  dropPkNotForUs
attr title  "packets dropped/not for us, sum(packetBytes)"
scalar Topo.s1.etherMAC[1] 	droppedPkIfaceDown:count 	0
attr interpolationmode  none
attr source  dropPkIfaceDown
attr title  "packets dropped/interface down, count"
scalar Topo.s1.etherMAC[1] 	droppedPkIfaceDown:sum(packetBytes) 	0
attr interpolationmode  none
attr source  dropPkIfaceDown
attr title  "packets dropped/interface down, sum(packetBytes)"
scalar Topo.s1.etherMAC[1] 	droppedPkBitError:count 	0
attr interpolationmode  none
attr source  dropPkBitError
attr title  "packets dropped/bit error, count"
scalar Topo.s1.etherMAC[1] 	droppedPkBitError:sum(packetBytes) 	0
attr interpolationmode  none
attr source  dropPkBitError
attr title  "packets dropped/bit error, sum(packetBytes)"
scalar Topo.s1.etherMAC[1] 	rxPkFromHL:count 	4
attr interpolationmode  none
attr source  rxPkFromHL
attr title  "packet bytes from higher layer, count"
scalar Topo.s1.etherMAC[1] 	rxPkFromHL:sum(packetBytes) 	256
attr interpolationmode  none
attr source  rxPkFromHL
attr title  "packet bytes from higher layer, sum(packetBytes)"
scalar Topo.s1.etherMAC[1] 	rxPausePkUnits:count 	0
attr interpolationmode  none
attr title  "pause units received, count"
scalar Topo.s1.etherMAC[1] 	rxPausePkUnits:sum 	0
attr interpolationmode  none
attr title  "pause units received, sum"
scalar Topo.s1.etherMAC[1] 	txPausePkUnits:count 	0
attr interpolationmode  none
attr title  "pause units sent, count"
scalar Topo.s1.etherMAC[1] 	txPausePkUnits:sum 	0
attr interpolationmode  none
attr title  "pause units sent, sum"
scalar Topo.s1.etherMAC[1] 	rxPkOk:count 	46
attr interpolationmode  none
attr source  rxPkOk
attr title  "packets received OK, count"
scalar Topo.s1.etherMAC[1] 	rxPkOk:sum(packetBytes) 	58384
attr interpolationmode  none
attr source  rxPkOk
attr title  "packets received OK, sum(packetBytes)"
scalar Topo.s1.etherMAC[1] 	txPk:count 	4
attr interpolationmode  none
attr source  txPk
attr title  "packets transmitted, count"
scalar Topo.s1.etherMAC[1] 	txPk:sum(packetBytes) 	256
attr interpolationmode  none
attr source  txPk
attr title  "packets transmitted, sum(packetBytes)"
scalar Topo.s1.etherMAC[1] 	backoff:count 	0
attr interpolationmode  none
attr title  "backoff, count"
scalar Topo.s1.etherMAC[1] 	collision:count 	0
attr interpolationmode  none
attr title  "collision, count"
scalar Topo.s1.etherMAC[1] 	passedUpPk:count 	46
attr interpolationmode  none
attr source  packetSentToUpper
attr title  "packets passed to higher layer, count"
scalar Topo.s1.etherMAC[1] 	passedUpPk:sum(packetBytes) 	58384
attr interpolationmode  none
attr source  packetSentToUpper
attr title  "packets passed to higher layer, sum(packetBytes)"
scalar Topo.s1.etherMAC[2] 	"simulated time" 	27.574999999745
scalar Topo.s1.etherMAC[2] 	full-duplex 	1
scalar Topo.s1.etherMAC[2] 	"frames/sec sent" 	0.14505893019173
scalar Topo.s1.etherMAC[2] 	"frames/sec rcvd" 	1.9945602901363
scalar Topo.s1.etherMAC[2] 	"bits/sec sent" 	74.270172258166
scalar Topo.s1.etherMAC[2] 	"bits/sec rcvd" 	5667.7425204513
scalar Topo.s1.etherMAC[2] 	"rx channel idle (%)" 	99.994204605621
scalar Topo.s1.etherMAC[2] 	"rx channel utilization (%)" 	0.00579539437902
scalar Topo.s1.etherMAC[2] 	"rx channel collision (%)" 	0
scalar Topo.s1.etherMAC[2] 	collisions 	0
scalar Topo.s1.etherMAC[2] 	backoffs 	0
scalar Topo.s1.etherMAC[2] 	droppedPkNotForUs:count 	0
attr interpolationmode  none
attr source  dropPkNotForUs
attr title  "packets dropped/not for us, count"
scalar Topo.s1.etherMAC[2] 	droppedPkNotForUs:sum(packetBytes) 	0
attr interpolationmode  none
attr source  dropPkNotForUs
attr title  "packets dropped/not for us, sum(packetBytes)"
scalar Topo.s1.etherMAC[2] 	droppedPkIfaceDown:count 	0
attr interpolationmode  none
attr source  dropPkIfaceDown
attr title  "packets dropped/interface down, count"
scalar Topo.s1.etherMAC[2] 	droppedPkIfaceDown:sum(packetBytes) 	0
attr interpolationmode  none
attr source  dropPkIfaceDown
attr title  "packets dropped/interface down, sum(packetBytes)"
scalar Topo.s1.etherMAC[2] 	droppedPkBitError:count 	0
attr interpolationmode  none
attr source  dropPkBitError
attr title  "packets dropped/bit error, count"
scalar Topo.s1.etherMAC[2] 	droppedPkBitError:sum(packetBytes) 	0
attr interpolationmode  none
attr source  dropPkBitError
attr title  "packets dropped/bit error, sum(packetBytes)"
scalar Topo.s1.etherMAC[2] 	rxPkFromHL:count 	4
attr interpolationmode  none
attr source  rxPkFromHL
attr title  "packet bytes from higher layer, count"
scalar Topo.s1.etherMAC[2] 	rxPkFromHL:sum(packetBytes) 	256
attr interpolationmode  none
attr source  rxPkFromHL
attr title  "packet bytes from higher layer, sum(packetBytes)"
scalar Topo.s1.etherMAC[2] 	rxPausePkUnits:count 	0
attr interpolationmode  none
attr title  "pause units received, count"
scalar Topo.s1.etherMAC[2] 	rxPausePkUnits:sum 	0
attr interpolationmode  none
attr title  "pause units received, sum"
scalar Topo.s1.etherMAC[2] 	txPausePkUnits:count 	0
attr interpolationmode  none
attr title  "pause units sent, count"
scalar Topo.s1.etherMAC[2] 	txPausePkUnits:sum 	0
attr interpolationmode  none
attr title  "pause units sent, sum"
scalar Topo.s1.etherMAC[2] 	rxPkOk:count 	55
attr interpolationmode  none
attr source  rxPkOk
attr title  "packets received OK, count"
scalar Topo.s1.etherMAC[2] 	rxPkOk:sum(packetBytes) 	19536
attr interpolationmode  none
attr source  rxPkOk
attr title  "packets received OK, sum(packetBytes)"
scalar Topo.s1.etherMAC[2] 	txPk:count 	4
attr interpolationmode  none
attr source  txPk
attr title  "packets transmitted, count"
scalar Topo.s1.etherMAC[2] 	txPk:sum(packetBytes) 	256
attr interpolationmode  none
attr source  txPk
attr title  "packets transmitted, sum(packetBytes)"
scalar Topo.s1.etherMAC[2] 	backoff:count 	0
attr interpolationmode  none
attr title  "backoff, count"
scalar Topo.s1.etherMAC[2] 	collision:count 	0
attr interpolationmode  none
attr title  "collision, count"
scalar Topo.s1.etherMAC[2] 	passedUpPk:count 	55
attr interpolationmode  none
attr source  packetSentToUpper
attr title  "packets passed to higher layer, count"
scalar Topo.s1.etherMAC[2] 	passedUpPk:sum(packetBytes) 	19536
attr interpolationmode  none
attr source  packetSentToUpper
attr title  "packets passed to higher layer, sum(packetBytes)"
scalar Topo.s1.etherMAC[3] 	"simulated time" 	27.574999999745
scalar Topo.s1.etherMAC[3] 	full-duplex 	1
scalar Topo.s1.etherMAC[3] 	"frames/sec sent" 	0.14505893019173
scalar Topo.s1.etherMAC[3] 	"frames/sec rcvd" 	5.0045330916147
scalar Topo.s1.etherMAC[3] 	"bits/sec sent" 	74.270172258166
scalar Topo.s1.etherMAC[3] 	"bits/sec rcvd" 	51529.573889869
scalar Topo.s1.etherMAC[3] 	"rx channel idle (%)" 	99.948150135992
scalar Topo.s1.etherMAC[3] 	"rx channel utilization (%)" 	0.051849864007732
scalar Topo.s1.etherMAC[3] 	"rx channel collision (%)" 	0
scalar Topo.s1.etherMAC[3] 	collisions 	0
scalar Topo.s1.etherMAC[3] 	backoffs 	0
scalar Topo.s1.etherMAC[3] 	droppedPkNotForUs:count 	0
attr interpolationmode  none
attr source  dropPkNotForUs
attr title  "packets dropped/not for us, count"
scalar Topo.s1.etherMAC[3] 	droppedPkNotForUs:sum(packetBytes) 	0
attr interpolationmode  none
attr source  dropPkNotForUs
attr title  "packets dropped/not for us, sum(packetBytes)"
scalar Topo.s1.etherMAC[3] 	droppedPkIfaceDown:count 	0
attr interpolationmode  none
attr source  dropPkIfaceDown
attr title  "packets dropped/interface down, count"
scalar Topo.s1.etherMAC[3] 	droppedPkIfaceDown:sum(packetBytes) 	0
attr interpolationmode  none
attr source  dropPkIfaceDown
attr title  "packets dropped/interface down, sum(packetBytes)"
scalar Topo.s1.etherMAC[3] 	droppedPkBitError:count 	0
attr interpolationmode  none
attr source  dropPkBitError
attr title  "packets dropped/bit error, count"
scalar Topo.s1.etherMAC[3] 	droppedPkBitError:sum(packetBytes) 	0
attr interpolationmode  none
attr source  dropPkBitError
attr title  "packets dropped/bit error, sum(packetBytes)"
scalar Topo.s1.etherMAC[3] 	rxPkFromHL:count 	4
attr interpolationmode  none
attr source  rxPkFromHL
attr title  "packet bytes from higher layer, count"
scalar Topo.s1.etherMAC[3] 	rxPkFromHL:sum(packetBytes) 	256
attr interpolationmode  none
attr source  rxPkFromHL
attr title  "packet bytes from higher layer, sum(packetBytes)"
scalar Topo.s1.etherMAC[3] 	rxPausePkUnits:count 	0
attr interpolationmode  none
attr title  "pause units received, count"
scalar Topo.s1.etherMAC[3] 	rxPausePkUnits:sum 	0
attr interpolationmode  none
attr title  "pause units received, sum"
scalar Topo.s1.etherMAC[3] 	txPausePkUnits:count 	0
attr interpolationmode  none
attr title  "pause units sent, count"
scalar Topo.s1.etherMAC[3] 	txPausePkUnits:sum 	0
attr interpolationmode  none
attr title  "pause units sent, sum"
scalar Topo.s1.etherMAC[3] 	rxPkOk:count 	138
attr interpolationmode  none
attr source  rxPkOk
attr title  "packets received OK, count"
scalar Topo.s1.etherMAC[3] 	rxPkOk:sum(packetBytes) 	177616
attr interpolationmode  none
attr source  rxPkOk
attr title  "packets received OK, sum(packetBytes)"
scalar Topo.s1.etherMAC[3] 	txPk:count 	4
attr interpolationmode  none
attr source  txPk
attr title  "packets transmitted, count"
scalar Topo.s1.etherMAC[3] 	txPk:sum(packetBytes) 	256
attr interpolationmode  none
attr source  txPk
attr title  "packets transmitted, sum(packetBytes)"
scalar Topo.s1.etherMAC[3] 	backoff:count 	0
attr interpolationmode  none
attr title  "backoff, count"
scalar Topo.s1.etherMAC[3] 	collision:count 	0
attr interpolationmode  none
attr title  "collision, count"
scalar Topo.s1.etherMAC[3] 	passedUpPk:count 	138
attr interpolationmode  none
attr source  packetSentToUpper
attr title  "packets passed to higher layer, count"
scalar Topo.s1.etherMAC[3] 	passedUpPk:sum(packetBytes) 	177616
attr interpolationmode  none
attr source  packetSentToUpper
attr title  "packets passed to higher layer, sum(packetBytes)"
scalar Topo.s1.etherMAC[4] 	"simulated time" 	27.574999999745
scalar Topo.s1.etherMAC[4] 	full-duplex 	1
scalar Topo.s1.etherMAC[4] 	"frames/sec sent" 	10.117860380873
scalar Topo.s1.etherMAC[4] 	"frames/sec rcvd" 	0.036264732547933
scalar Topo.s1.etherMAC[4] 	"bits/sec sent" 	103472.27561292
scalar Topo.s1.etherMAC[4] 	"bits/sec rcvd" 	18.567543064542
scalar Topo.s1.etherMAC[4] 	"rx channel idle (%)" 	99.999979111514
scalar Topo.s1.etherMAC[4] 	"rx channel utilization (%)" 	2.0888485947609e-05
scalar Topo.s1.etherMAC[4] 	"rx channel collision (%)" 	0
scalar Topo.s1.etherMAC[4] 	collisions 	0
scalar Topo.s1.etherMAC[4] 	backoffs 	0
scalar Topo.s1.etherMAC[4] 	droppedPkNotForUs:count 	0
attr interpolationmode  none
attr source  dropPkNotForUs
attr title  "packets dropped/not for us, count"
scalar Topo.s1.etherMAC[4] 	droppedPkNotForUs:sum(packetBytes) 	0
attr interpolationmode  none
attr source  dropPkNotForUs
attr title  "packets dropped/not for us, sum(packetBytes)"
scalar Topo.s1.etherMAC[4] 	droppedPkIfaceDown:count 	0
attr interpolationmode  none
attr source  dropPkIfaceDown
attr title  "packets dropped/interface down, count"
scalar Topo.s1.etherMAC[4] 	droppedPkIfaceDown:sum(packetBytes) 	0
attr interpolationmode  none
attr source  dropPkIfaceDown
attr title  "packets dropped/interface down, sum(packetBytes)"
scalar Topo.s1.etherMAC[4] 	droppedPkBitError:count 	0
attr interpolationmode  none
attr source  dropPkBitError
attr title  "packets dropped/bit error, count"
scalar Topo.s1.etherMAC[4] 	droppedPkBitError:sum(packetBytes) 	0
attr interpolationmode  none
attr source  dropPkBitError
attr title  "packets dropped/bit error, sum(packetBytes)"
scalar Topo.s1.etherMAC[4] 	rxPkFromHL:count 	279
attr interpolationmode  none
attr source  rxPkFromHL
attr title  "packet bytes from higher layer, count"
scalar Topo.s1.etherMAC[4] 	rxPkFromHL:sum(packetBytes) 	356656
attr interpolationmode  none
attr source  rxPkFromHL
attr title  "packet bytes from higher layer, sum(packetBytes)"
scalar Topo.s1.etherMAC[4] 	rxPausePkUnits:count 	0
attr interpolationmode  none
attr title  "pause units received, count"
scalar Topo.s1.etherMAC[4] 	rxPausePkUnits:sum 	0
attr interpolationmode  none
attr title  "pause units received, sum"
scalar Topo.s1.etherMAC[4] 	txPausePkUnits:count 	0
attr interpolationmode  none
attr title  "pause units sent, count"
scalar Topo.s1.etherMAC[4] 	txPausePkUnits:sum 	0
attr interpolationmode  none
attr title  "pause units sent, sum"
scalar Topo.s1.etherMAC[4] 	rxPkOk:count 	1
attr interpolationmode  none
attr source  rxPkOk
attr title  "packets received OK, count"
scalar Topo.s1.etherMAC[4] 	rxPkOk:sum(packetBytes) 	64
attr interpolationmode  none
attr source  rxPkOk
attr title  "packets received OK, sum(packetBytes)"
scalar Topo.s1.etherMAC[4] 	txPk:count 	279
attr interpolationmode  none
attr source  txPk
attr title  "packets transmitted, count"
scalar Topo.s1.etherMAC[4] 	txPk:sum(packetBytes) 	356656
attr interpolationmode  none
attr source  txPk
attr title  "packets transmitted, sum(packetBytes)"
scalar Topo.s1.etherMAC[4] 	backoff:count 	0
attr interpolationmode  none
attr title  "backoff, count"
scalar Topo.s1.etherMAC[4] 	collision:count 	0
attr interpolationmode  none
attr title  "collision, count"
scalar Topo.s1.etherMAC[4] 	passedUpPk:count 	1
attr interpolationmode  none
attr source  packetSentToUpper
attr title  "packets passed to higher layer, count"
scalar Topo.s1.etherMAC[4] 	passedUpPk:sum(packetBytes) 	64
attr interpolationmode  none
attr source  packetSentToUpper
attr title  "packets passed to higher layer, sum(packetBytes)"
scalar Topo.s1.etherMAC[5] 	"simulated time" 	27.574999999745
scalar Topo.s1.etherMAC[5] 	full-duplex 	1
scalar Topo.s1.etherMAC[5] 	"frames/sec sent" 	3.7352674524371
scalar Topo.s1.etherMAC[5] 	"frames/sec rcvd" 	0.072529465095866
scalar Topo.s1.etherMAC[5] 	"bits/sec sent" 	22643.118767208
scalar Topo.s1.etherMAC[5] 	"bits/sec rcvd" 	37.135086129083
scalar Topo.s1.etherMAC[5] 	"rx channel idle (%)" 	99.999958223028
scalar Topo.s1.etherMAC[5] 	"rx channel utilization (%)" 	4.1776971895219e-05
scalar Topo.s1.etherMAC[5] 	"rx channel collision (%)" 	0
scalar Topo.s1.etherMAC[5] 	collisions 	0
scalar Topo.s1.etherMAC[5] 	backoffs 	0
scalar Topo.s1.etherMAC[5] 	droppedPkNotForUs:count 	0
attr interpolationmode  none
attr source  dropPkNotForUs
attr title  "packets dropped/not for us, count"
scalar Topo.s1.etherMAC[5] 	droppedPkNotForUs:sum(packetBytes) 	0
attr interpolationmode  none
attr source  dropPkNotForUs
attr title  "packets dropped/not for us, sum(packetBytes)"
scalar Topo.s1.etherMAC[5] 	droppedPkIfaceDown:count 	0
attr interpolationmode  none
attr source  dropPkIfaceDown
attr title  "packets dropped/interface down, count"
scalar Topo.s1.etherMAC[5] 	droppedPkIfaceDown:sum(packetBytes) 	0
attr interpolationmode  none
attr source  dropPkIfaceDown
attr title  "packets dropped/interface down, sum(packetBytes)"
scalar Topo.s1.etherMAC[5] 	droppedPkBitError:count 	0
attr interpolationmode  none
attr source  dropPkBitError
attr title  "packets dropped/bit error, count"
scalar Topo.s1.etherMAC[5] 	droppedPkBitError:sum(packetBytes) 	0
attr interpolationmode  none
attr source  dropPkBitError
attr title  "packets dropped/bit error, sum(packetBytes)"
scalar Topo.s1.etherMAC[5] 	rxPkFromHL:count 	103
attr interpolationmode  none
attr source  rxPkFromHL
attr title  "packet bytes from higher layer, count"
scalar Topo.s1.etherMAC[5] 	rxPkFromHL:sum(packetBytes) 	78048
attr interpolationmode  none
attr source  rxPkFromHL
attr title  "packet bytes from higher layer, sum(packetBytes)"
scalar Topo.s1.etherMAC[5] 	rxPausePkUnits:count 	0
attr interpolationmode  none
attr title  "pause units received, count"
scalar Topo.s1.etherMAC[5] 	rxPausePkUnits:sum 	0
attr interpolationmode  none
attr title  "pause units received, sum"
scalar Topo.s1.etherMAC[5] 	txPausePkUnits:count 	0
attr interpolationmode  none
attr title  "pause units sent, count"
scalar Topo.s1.etherMAC[5] 	txPausePkUnits:sum 	0
attr interpolationmode  none
attr title  "pause units sent, sum"
scalar Topo.s1.etherMAC[5] 	rxPkOk:count 	2
attr interpolationmode  none
attr source  rxPkOk
attr title  "packets received OK, count"
scalar Topo.s1.etherMAC[5] 	rxPkOk:sum(packetBytes) 	128
attr interpolationmode  none
attr source  rxPkOk
attr title  "packets received OK, sum(packetBytes)"
scalar Topo.s1.etherMAC[5] 	txPk:count 	103
attr interpolationmode  none
attr source  txPk
attr title  "packets transmitted, count"
scalar Topo.s1.etherMAC[5] 	txPk:sum(packetBytes) 	78048
attr interpolationmode  none
attr source  txPk
attr title  "packets transmitted, sum(packetBytes)"
scalar Topo.s1.etherMAC[5] 	backoff:count 	0
attr interpolationmode  none
attr title  "backoff, count"
scalar Topo.s1.etherMAC[5] 	collision:count 	0
attr interpolationmode  none
attr title  "collision, count"
scalar Topo.s1.etherMAC[5] 	passedUpPk:count 	2
attr interpolationmode  none
attr source  packetSentToUpper
attr title  "packets passed to higher layer, count"
scalar Topo.s1.etherMAC[5] 	passedUpPk:sum(packetBytes) 	128
attr interpolationmode  none
attr source  packetSentToUpper
attr title  "packets passed to higher layer, sum(packetBytes)"
scalar Topo.s1.etherMAC[6] 	"simulated time" 	27.574999999745
scalar Topo.s1.etherMAC[6] 	full-duplex 	1
scalar Topo.s1.etherMAC[6] 	"frames/sec sent" 	5.1133272892585
scalar Topo.s1.etherMAC[6] 	"frames/sec rcvd" 	0.036264732547933
scalar Topo.s1.etherMAC[6] 	"bits/sec sent" 	51585.276519063
scalar Topo.s1.etherMAC[6] 	"bits/sec rcvd" 	18.567543064542
scalar Topo.s1.etherMAC[6] 	"rx channel idle (%)" 	99.999979111514
scalar Topo.s1.etherMAC[6] 	"rx channel utilization (%)" 	2.0888485947609e-05
scalar Topo.s1.etherMAC[6] 	"rx channel collision (%)" 	0
scalar Topo.s1.etherMAC[6] 	collisions 	0
scalar Topo.s1.etherMAC[6] 	backoffs 	0
scalar Topo.s1.etherMAC[6] 	droppedPkNotForUs:count 	0
attr interpolationmode  none
attr source  dropPkNotForUs
attr title  "packets dropped/not for us, count"
scalar Topo.s1.etherMAC[6] 	droppedPkNotForUs:sum(packetBytes) 	0
attr interpolationmode  none
attr source  dropPkNotForUs
attr title  "packets dropped/not for us, sum(packetBytes)"
scalar Topo.s1.etherMAC[6] 	droppedPkIfaceDown:count 	0
attr interpolationmode  none
attr source  dropPkIfaceDown
attr title  "packets dropped/interface down, count"
scalar Topo.s1.etherMAC[6] 	droppedPkIfaceDown:sum(packetBytes) 	0
attr interpolationmode  none
attr source  dropPkIfaceDown
attr title  "packets dropped/interface down, sum(packetBytes)"
scalar Topo.s1.etherMAC[6] 	droppedPkBitError:count 	0
attr interpolationmode  none
attr source  dropPkBitError
attr title  "packets dropped/bit error, count"
scalar Topo.s1.etherMAC[6] 	droppedPkBitError:sum(packetBytes) 	0
attr interpolationmode  none
attr source  dropPkBitError
attr title  "packets dropped/bit error, sum(packetBytes)"
scalar Topo.s1.etherMAC[6] 	rxPkFromHL:count 	141
attr interpolationmode  none
attr source  rxPkFromHL
attr title  "packet bytes from higher layer, count"
scalar Topo.s1.etherMAC[6] 	rxPkFromHL:sum(packetBytes) 	177808
attr interpolationmode  none
attr source  rxPkFromHL
attr title  "packet bytes from higher layer, sum(packetBytes)"
scalar Topo.s1.etherMAC[6] 	rxPausePkUnits:count 	0
attr interpolationmode  none
attr title  "pause units received, count"
scalar Topo.s1.etherMAC[6] 	rxPausePkUnits:sum 	0
attr interpolationmode  none
attr title  "pause units received, sum"
scalar Topo.s1.etherMAC[6] 	txPausePkUnits:count 	0
attr interpolationmode  none
attr title  "pause units sent, count"
scalar Topo.s1.etherMAC[6] 	txPausePkUnits:sum 	0
attr interpolationmode  none
attr title  "pause units sent, sum"
scalar Topo.s1.etherMAC[6] 	rxPkOk:count 	1
attr interpolationmode  none
attr source  rxPkOk
attr title  "packets received OK, count"
scalar Topo.s1.etherMAC[6] 	rxPkOk:sum(packetBytes) 	64
attr interpolationmode  none
attr source  rxPkOk
attr title  "packets received OK, sum(packetBytes)"
scalar Topo.s1.etherMAC[6] 	txPk:count 	141
attr interpolationmode  none
attr source  txPk
attr title  "packets transmitted, count"
scalar Topo.s1.etherMAC[6] 	txPk:sum(packetBytes) 	177808
attr interpolationmode  none
attr source  txPk
attr title  "packets transmitted, sum(packetBytes)"
scalar Topo.s1.etherMAC[6] 	backoff:count 	0
attr interpolationmode  none
attr title  "backoff, count"
scalar Topo.s1.etherMAC[6] 	collision:count 	0
attr interpolationmode  none
attr title  "collision, count"
scalar Topo.s1.etherMAC[6] 	passedUpPk:count 	1
attr interpolationmode  none
attr source  packetSentToUpper
attr title  "packets passed to higher layer, count"
scalar Topo.s1.etherMAC[6] 	passedUpPk:sum(packetBytes) 	64
attr interpolationmode  none
attr source  packetSentToUpper
attr title  "packets passed to higher layer, sum(packetBytes)"
scalar Topo.s1.open_Flow_Processing 	droppedPkt:last 	-nan
attr source  droppedPkt
statistic Topo.s1.ofa_switch 	myRtt:stats
field count 519
field mean 0.0058958534019192
field stddev 0.092082601503366
field sum 3.059947915596
field sqrsum 4.410269453135
field min 4.3199999e-05
field max 2.000036439999
attr interpolation  none
attr source  myRtt
attr title  "RTT for packet out direction, stats"
statistic Topo.controller.networkLayer.ip 	hops:stats
field count 0
field mean -nan
field stddev -nan
field sum 0
field sqrsum 0
field min -nan
field max -nan
attr interpolationmode  none
attr source  hops
attr title  "Hops number, stats"
scalar Topo.controller.networkLayer.arp 	failedARPResolution:count 	0
attr title  "ARP failed resolutions, count"
scalar Topo.controller.networkLayer.arp 	completedARPResolution:count 	1
attr title  "ARP completed resolutions, count"
scalar Topo.controller.networkLayer.arp 	initiatedARPResolution:count 	0
attr title  "ARP initiated resolutions, count"
scalar Topo.controller.networkLayer.arp 	sentReply:count 	1
attr title  "ARP replies sent, count"
scalar Topo.controller.networkLayer.arp 	sentReq:count 	0
attr title  "ARP request sent, count"
scalar Topo.controller.lo0.lo 	droppedPkBitError:count 	0
attr interpolationmode  none
attr source  dropPkBitError
attr title  "packets dropped/bit error, count"
scalar Topo.controller.lo0.lo 	droppedPkBitError:sum(packetBytes) 	0
attr interpolationmode  none
attr source  dropPkBitError
attr title  "packets dropped/bit error, sum(packetBytes)"
scalar Topo.controller.lo0.lo 	rcvdPkFromHL:count 	0
attr interpolationmode  none
attr source  packetReceivedFromUpper
attr title  "packets received from higher layer, count"
scalar Topo.controller.lo0.lo 	rcvdPkFromHL:sum(packetBytes) 	0
attr interpolationmode  none
attr source  packetReceivedFromUpper
attr title  "packets received from higher layer, sum(packetBytes)"
scalar Topo.controller.lo0.lo 	passedUpPk:count 	0
attr interpolationmode  none
attr source  packetSentToUpper
attr title  "packets passed to higher layer, count"
scalar Topo.controller.lo0.lo 	passedUpPk:sum(packetBytes) 	0
attr interpolationmode  none
attr source  packetSentToUpper
attr title  "packets passed to higher layer, sum(packetBytes)"
scalar Topo.controller.eth[0].mac 	"simulated time" 	27.574999999745
scalar Topo.controller.eth[0].mac 	full-duplex 	1
scalar Topo.controller.eth[0].mac 	"frames/sec sent" 	117.5702629204
scalar Topo.controller.eth[0].mac 	"frames/sec rcvd" 	117.60652765295
scalar Topo.controller.eth[0].mac 	"bits/sec sent" 	235489.8277447
scalar Topo.controller.eth[0].mac 	"bits/sec rcvd" 	235451.82230499
scalar Topo.controller.eth[0].mac 	"rx channel idle (%)" 	99.757021359925
scalar Topo.controller.eth[0].mac 	"rx channel utilization (%)" 	0.24297864007478
scalar Topo.controller.eth[0].mac 	droppedPkNotForUs:count 	0
attr interpolationmode  none
attr source  dropPkNotForUs
attr title  "packets dropped/not for us, count"
scalar Topo.controller.eth[0].mac 	droppedPkNotForUs:sum(packetBytes) 	0
attr interpolationmode  none
attr source  dropPkNotForUs
attr title  "packets dropped/not for us, sum(packetBytes)"
scalar Topo.controller.eth[0].mac 	droppedPkIfaceDown:count 	0
attr interpolationmode  none
attr source  dropPkIfaceDown
attr title  "packets dropped/interface down, count"
scalar Topo.controller.eth[0].mac 	droppedPkIfaceDown:sum(packetBytes) 	0
attr interpolationmode  none
attr source  dropPkIfaceDown
attr title  "packets dropped/interface down, sum(packetBytes)"
scalar Topo.controller.eth[0].mac 	droppedPkBitError:count 	0
attr interpolationmode  none
attr source  dropPkBitError
attr title  "packets dropped/bit error, count"
scalar Topo.controller.eth[0].mac 	droppedPkBitError:sum(packetBytes) 	0
attr interpolationmode  none
attr source  dropPkBitError
attr title  "packets dropped/bit error, sum(packetBytes)"
scalar Topo.controller.eth[0].mac 	rxPkFromHL:count 	3242
attr interpolationmode  none
attr source  rxPkFromHL
attr title  "packet bytes from higher layer, count"
scalar Topo.controller.eth[0].mac 	rxPkFromHL:sum(packetBytes) 	811704
attr interpolationmode  none
attr source  rxPkFromHL
attr title  "packet bytes from higher layer, sum(packetBytes)"
scalar Topo.controller.eth[0].mac 	rxPausePkUnits:count 	0
attr interpolationmode  none
attr title  "pause units received, count"
scalar Topo.controller.eth[0].mac 	rxPausePkUnits:sum 	0
attr interpolationmode  none
attr title  "pause units received, sum"
scalar Topo.controller.eth[0].mac 	txPausePkUnits:count 	0
attr interpolationmode  none
attr title  "pause units sent, count"
scalar Topo.controller.eth[0].mac 	txPausePkUnits:sum 	0
attr interpolationmode  none
attr title  "pause units sent, sum"
scalar Topo.controller.eth[0].mac 	rxPkOk:count 	3243
attr interpolationmode  none
attr source  rxPkOk
attr title  "packets received OK, count"
scalar Topo.controller.eth[0].mac 	rxPkOk:sum(packetBytes) 	811573
attr interpolationmode  none
attr source  rxPkOk
attr title  "packets received OK, sum(packetBytes)"
scalar Topo.controller.eth[0].mac 	txPk:count 	3242
attr interpolationmode  none
attr source  txPk
attr title  "packets transmitted, count"
scalar Topo.controller.eth[0].mac 	txPk:sum(packetBytes) 	811704
attr interpolationmode  none
attr source  txPk
attr title  "packets transmitted, sum(packetBytes)"
scalar Topo.controller.eth[0].mac 	passedUpPk:count 	3243
attr interpolationmode  none
attr source  packetSentToUpper
attr title  "packets passed to higher layer, count"
scalar Topo.controller.eth[0].mac 	passedUpPk:sum(packetBytes) 	811573
attr interpolationmode  none
attr source  packetSentToUpper
attr title  "packets passed to higher layer, sum(packetBytes)"
scalar Topo.controller.eth[0].encap 	pauseSent:count 	0
attr title  "pause sent, count"
scalar Topo.controller.eth[0].encap 	pauseSent:sum 	0
attr title  "pause sent, sum"
scalar Topo.controller.eth[0].encap 	decapPk:count 	3243
attr interpolationmode  none
attr source  decapPk
attr title  "packets decapsulated, count"
scalar Topo.controller.eth[0].encap 	decapPk:sum(packetBytes) 	742488
attr interpolationmode  none
attr source  decapPk
attr title  "packets decapsulated, sum(packetBytes)"
scalar Topo.controller.eth[0].encap 	encapPk:count 	3242
attr interpolationmode  none
attr source  encapPk
attr title  "packets encapsulated, count"
scalar Topo.controller.eth[0].encap 	encapPk:sum(packetBytes) 	742963
attr interpolationmode  none
attr source  encapPk
attr title  "packets encapsulated, sum(packetBytes)"
statistic Topo.controller.entropy 	entropy:stats
field count 0
field mean -nan
field stddev -nan
field sum 0
field sqrsum 0
field min -nan
field max -nan
attr source  entropy
attr title  "Entropy Value, stats"
