version 2
run simple_attack-0-20161228-14:05:46-9315
attr configname simple_attack
attr datetime 20161228-14:05:46
attr experiment simple_attack
attr inifile omnetpp.ini
attr iterationvars ""
attr iterationvars2 $repetition=0
attr measurement ""
attr network Topo
attr processid 9315
attr repetition 0
attr replication #0
attr resultdir results
attr runnumber 0
attr seedset 0

scalar Topo.client1.networkLayer.arp 	failedARPResolution:count 	0
attr title  "ARP failed resolutions, count"
scalar Topo.client1.networkLayer.arp 	completedARPResolution:count 	1
attr title  "ARP completed resolutions, count"
scalar Topo.client1.networkLayer.arp 	initiatedARPResolution:count 	1
attr title  "ARP initiated resolutions, count"
scalar Topo.client1.networkLayer.arp 	sentReply:count 	0
attr title  "ARP replies sent, count"
scalar Topo.client1.networkLayer.arp 	sentReq:count 	1
attr title  "ARP request sent, count"
scalar Topo.client1.lo0.lo 	droppedPkBitError:count 	0
attr interpolationmode  none
attr source  dropPkBitError
attr title  "packets dropped/bit error, count"
scalar Topo.client1.lo0.lo 	droppedPkBitError:sum(packetBytes) 	0
attr interpolationmode  none
attr source  dropPkBitError
attr title  "packets dropped/bit error, sum(packetBytes)"
scalar Topo.client1.lo0.lo 	rcvdPkFromHL:count 	0
attr interpolationmode  none
attr source  packetReceivedFromUpper
attr title  "packets received from higher layer, count"
scalar Topo.client1.lo0.lo 	rcvdPkFromHL:sum(packetBytes) 	0
attr interpolationmode  none
attr source  packetReceivedFromUpper
attr title  "packets received from higher layer, sum(packetBytes)"
scalar Topo.client1.lo0.lo 	passedUpPk:count 	0
attr interpolationmode  none
attr source  packetSentToUpper
attr title  "packets passed to higher layer, count"
scalar Topo.client1.lo0.lo 	passedUpPk:sum(packetBytes) 	0
attr interpolationmode  none
attr source  packetSentToUpper
attr title  "packets passed to higher layer, sum(packetBytes)"
scalar Topo.client1.eth[0].mac 	"simulated time" 	35.200098279973
scalar Topo.client1.eth[0].mac 	full-duplex 	1
scalar Topo.client1.eth[0].mac 	"frames/sec sent" 	9.9999720796311
scalar Topo.client1.eth[0].mac 	"frames/sec rcvd" 	0.11363604635944
scalar Topo.client1.eth[0].mac 	"bits/sec sent" 	103399.71130339
scalar Topo.client1.eth[0].mac 	"bits/sec rcvd" 	58.181655736035
scalar Topo.client1.eth[0].mac 	"rx channel idle (%)" 	99.999934545637
scalar Topo.client1.eth[0].mac 	"rx channel utilization (%)" 	6.545436270304e-05
scalar Topo.client1.eth[0].mac 	droppedPkNotForUs:count 	0
attr interpolationmode  none
attr source  dropPkNotForUs
attr title  "packets dropped/not for us, count"
scalar Topo.client1.eth[0].mac 	droppedPkNotForUs:sum(packetBytes) 	0
attr interpolationmode  none
attr source  dropPkNotForUs
attr title  "packets dropped/not for us, sum(packetBytes)"
scalar Topo.client1.eth[0].mac 	droppedPkIfaceDown:count 	0
attr interpolationmode  none
attr source  dropPkIfaceDown
attr title  "packets dropped/interface down, count"
scalar Topo.client1.eth[0].mac 	droppedPkIfaceDown:sum(packetBytes) 	0
attr interpolationmode  none
attr source  dropPkIfaceDown
attr title  "packets dropped/interface down, sum(packetBytes)"
scalar Topo.client1.eth[0].mac 	droppedPkBitError:count 	0
attr interpolationmode  none
attr source  dropPkBitError
attr title  "packets dropped/bit error, count"
scalar Topo.client1.eth[0].mac 	droppedPkBitError:sum(packetBytes) 	0
attr interpolationmode  none
attr source  dropPkBitError
attr title  "packets dropped/bit error, sum(packetBytes)"
scalar Topo.client1.eth[0].mac 	rxPkFromHL:count 	353
attr interpolationmode  none
attr source  rxPkFromHL
attr title  "packet bytes from higher layer, count"
scalar Topo.client1.eth[0].mac 	rxPkFromHL:sum(packetBytes) 	456256
attr interpolationmode  none
attr source  rxPkFromHL
attr title  "packet bytes from higher layer, sum(packetBytes)"
scalar Topo.client1.eth[0].mac 	rxPausePkUnits:count 	0
attr interpolationmode  none
attr title  "pause units received, count"
scalar Topo.client1.eth[0].mac 	rxPausePkUnits:sum 	0
attr interpolationmode  none
attr title  "pause units received, sum"
scalar Topo.client1.eth[0].mac 	txPausePkUnits:count 	0
attr interpolationmode  none
attr title  "pause units sent, count"
scalar Topo.client1.eth[0].mac 	txPausePkUnits:sum 	0
attr interpolationmode  none
attr title  "pause units sent, sum"
scalar Topo.client1.eth[0].mac 	rxPkOk:count 	4
attr interpolationmode  none
attr source  rxPkOk
attr title  "packets received OK, count"
scalar Topo.client1.eth[0].mac 	rxPkOk:sum(packetBytes) 	256
attr interpolationmode  none
attr source  rxPkOk
attr title  "packets received OK, sum(packetBytes)"
scalar Topo.client1.eth[0].mac 	txPk:count 	352
attr interpolationmode  none
attr source  txPk
attr title  "packets transmitted, count"
scalar Topo.client1.eth[0].mac 	txPk:sum(packetBytes) 	454960
attr interpolationmode  none
attr source  txPk
attr title  "packets transmitted, sum(packetBytes)"
scalar Topo.client1.eth[0].mac 	passedUpPk:count 	4
attr interpolationmode  none
attr source  packetSentToUpper
attr title  "packets passed to higher layer, count"
scalar Topo.client1.eth[0].mac 	passedUpPk:sum(packetBytes) 	256
attr interpolationmode  none
attr source  packetSentToUpper
attr title  "packets passed to higher layer, sum(packetBytes)"
scalar Topo.client1.eth[0].encap 	pauseSent:count 	0
attr title  "pause sent, count"
scalar Topo.client1.eth[0].encap 	pauseSent:sum 	0
attr title  "pause sent, sum"
scalar Topo.client1.eth[0].encap 	decapPk:count 	4
attr interpolationmode  none
attr source  decapPk
attr title  "packets decapsulated, count"
scalar Topo.client1.eth[0].encap 	decapPk:sum(packetBytes) 	112
attr interpolationmode  none
attr source  decapPk
attr title  "packets decapsulated, sum(packetBytes)"
scalar Topo.client1.eth[0].encap 	encapPk:count 	353
attr interpolationmode  none
attr source  encapPk
attr title  "packets encapsulated, count"
scalar Topo.client1.eth[0].encap 	encapPk:sum(packetBytes) 	449884
attr interpolationmode  none
attr source  encapPk
attr title  "packets encapsulated, sum(packetBytes)"
scalar Topo.client1.udpApp[0] 	"packets sent" 	352
scalar Topo.client1.udpApp[0] 	"packets received" 	0
scalar Topo.client1.udpApp[0] 	rcvdPk:count 	0
attr interpolationmode  none
attr source  rcvdPk
attr title  "packets received, count"
scalar Topo.client1.udpApp[0] 	rcvdPk:sum(packetBytes) 	0
attr interpolationmode  none
attr source  rcvdPk
attr title  "packets received, sum(packetBytes)"
statistic Topo.client1.udpApp[0] 	rcvdPkLifetime:stats
field count 0
field mean -nan
field stddev -nan
field sum 0
field sqrsum 0
field min -nan
field max -nan
attr interpolationmode  none
attr source  messageAge(rcvdPk)
attr title  "received packet lifetime, stats"
attr unit  s
scalar Topo.client1.udpApp[0] 	sentPk:count 	352
attr interpolationmode  none
attr source  sentPk
attr title  "packets sent, count"
scalar Topo.client1.udpApp[0] 	sentPk:sum(packetBytes) 	440000
attr interpolationmode  none
attr source  sentPk
attr title  "packets sent, sum(packetBytes)"
scalar Topo.client1.udp 	droppedPkBadChecksum:count 	0
attr interpolationmode  none
attr title  "packets dropped (checksum error), count"
scalar Topo.client1.udp 	droppedPkWrongPort:count 	0
attr interpolationmode  none
attr title  "packets dropped (wrong port), count"
scalar Topo.client1.udp 	passedUpPk:count 	0
attr interpolationmode  none
attr title  "packets passed up, count"
scalar Topo.client1.udp 	rcvdPk:count 	0
attr interpolationmode  none
attr source  rcvdPk
attr title  "packets received, count"
scalar Topo.client1.udp 	rcvdPk:sum(packetBytes) 	0
attr interpolationmode  none
attr source  rcvdPk
attr title  "packets received, sum(packetBytes)"
statistic Topo.client1.udp 	rcvdPkLifetime:stats
field count 0
field mean -nan
field stddev -nan
field sum 0
field sqrsum 0
field min -nan
field max -nan
attr interpolationmode  none
attr source  messageAge(rcvdPk)
attr title  "received packet lifetime, stats"
attr unit  s
scalar Topo.client1.udp 	sentPk:count 	352
attr interpolationmode  none
attr source  sentPk
attr title  "packets sent, count"
scalar Topo.client1.udp 	sentPk:sum(packetBytes) 	442816
attr interpolationmode  none
attr source  sentPk
attr title  "packets sent, sum(packetBytes)"
scalar Topo.client2.networkLayer.arp 	failedARPResolution:count 	0
attr title  "ARP failed resolutions, count"
scalar Topo.client2.networkLayer.arp 	completedARPResolution:count 	1
attr title  "ARP completed resolutions, count"
scalar Topo.client2.networkLayer.arp 	initiatedARPResolution:count 	1
attr title  "ARP initiated resolutions, count"
scalar Topo.client2.networkLayer.arp 	sentReply:count 	0
attr title  "ARP replies sent, count"
scalar Topo.client2.networkLayer.arp 	sentReq:count 	1
attr title  "ARP request sent, count"
scalar Topo.client2.lo0.lo 	droppedPkBitError:count 	0
attr interpolationmode  none
attr source  dropPkBitError
attr title  "packets dropped/bit error, count"
scalar Topo.client2.lo0.lo 	droppedPkBitError:sum(packetBytes) 	0
attr interpolationmode  none
attr source  dropPkBitError
attr title  "packets dropped/bit error, sum(packetBytes)"
scalar Topo.client2.lo0.lo 	rcvdPkFromHL:count 	0
attr interpolationmode  none
attr source  packetReceivedFromUpper
attr title  "packets received from higher layer, count"
scalar Topo.client2.lo0.lo 	rcvdPkFromHL:sum(packetBytes) 	0
attr interpolationmode  none
attr source  packetReceivedFromUpper
attr title  "packets received from higher layer, sum(packetBytes)"
scalar Topo.client2.lo0.lo 	passedUpPk:count 	0
attr interpolationmode  none
attr source  packetSentToUpper
attr title  "packets passed to higher layer, count"
scalar Topo.client2.lo0.lo 	passedUpPk:sum(packetBytes) 	0
attr interpolationmode  none
attr source  packetSentToUpper
attr title  "packets passed to higher layer, sum(packetBytes)"
scalar Topo.client2.eth[0].mac 	"simulated time" 	35.200098279973
scalar Topo.client2.eth[0].mac 	full-duplex 	1
scalar Topo.client2.eth[0].mac 	"frames/sec sent" 	1.6761316838018
scalar Topo.client2.eth[0].mac 	"frames/sec rcvd" 	0.11363604635944
scalar Topo.client2.eth[0].mac 	"bits/sec sent" 	17098.134079427
scalar Topo.client2.eth[0].mac 	"bits/sec rcvd" 	58.181655736035
scalar Topo.client2.eth[0].mac 	"rx channel idle (%)" 	99.999934545637
scalar Topo.client2.eth[0].mac 	"rx channel utilization (%)" 	6.545436270304e-05
scalar Topo.client2.eth[0].mac 	droppedPkNotForUs:count 	0
attr interpolationmode  none
attr source  dropPkNotForUs
attr title  "packets dropped/not for us, count"
scalar Topo.client2.eth[0].mac 	droppedPkNotForUs:sum(packetBytes) 	0
attr interpolationmode  none
attr source  dropPkNotForUs
attr title  "packets dropped/not for us, sum(packetBytes)"
scalar Topo.client2.eth[0].mac 	droppedPkIfaceDown:count 	0
attr interpolationmode  none
attr source  dropPkIfaceDown
attr title  "packets dropped/interface down, count"
scalar Topo.client2.eth[0].mac 	droppedPkIfaceDown:sum(packetBytes) 	0
attr interpolationmode  none
attr source  dropPkIfaceDown
attr title  "packets dropped/interface down, sum(packetBytes)"
scalar Topo.client2.eth[0].mac 	droppedPkBitError:count 	0
attr interpolationmode  none
attr source  dropPkBitError
attr title  "packets dropped/bit error, count"
scalar Topo.client2.eth[0].mac 	droppedPkBitError:sum(packetBytes) 	0
attr interpolationmode  none
attr source  dropPkBitError
attr title  "packets dropped/bit error, sum(packetBytes)"
scalar Topo.client2.eth[0].mac 	rxPkFromHL:count 	59
attr interpolationmode  none
attr source  rxPkFromHL
attr title  "packet bytes from higher layer, count"
scalar Topo.client2.eth[0].mac 	rxPkFromHL:sum(packetBytes) 	75232
attr interpolationmode  none
attr source  rxPkFromHL
attr title  "packet bytes from higher layer, sum(packetBytes)"
scalar Topo.client2.eth[0].mac 	rxPausePkUnits:count 	0
attr interpolationmode  none
attr title  "pause units received, count"
scalar Topo.client2.eth[0].mac 	rxPausePkUnits:sum 	0
attr interpolationmode  none
attr title  "pause units received, sum"
scalar Topo.client2.eth[0].mac 	txPausePkUnits:count 	0
attr interpolationmode  none
attr title  "pause units sent, count"
scalar Topo.client2.eth[0].mac 	txPausePkUnits:sum 	0
attr interpolationmode  none
attr title  "pause units sent, sum"
scalar Topo.client2.eth[0].mac 	rxPkOk:count 	4
attr interpolationmode  none
attr source  rxPkOk
attr title  "packets received OK, count"
scalar Topo.client2.eth[0].mac 	rxPkOk:sum(packetBytes) 	256
attr interpolationmode  none
attr source  rxPkOk
attr title  "packets received OK, sum(packetBytes)"
scalar Topo.client2.eth[0].mac 	txPk:count 	59
attr interpolationmode  none
attr source  txPk
attr title  "packets transmitted, count"
scalar Topo.client2.eth[0].mac 	txPk:sum(packetBytes) 	75232
attr interpolationmode  none
attr source  txPk
attr title  "packets transmitted, sum(packetBytes)"
scalar Topo.client2.eth[0].mac 	passedUpPk:count 	4
attr interpolationmode  none
attr source  packetSentToUpper
attr title  "packets passed to higher layer, count"
scalar Topo.client2.eth[0].mac 	passedUpPk:sum(packetBytes) 	256
attr interpolationmode  none
attr source  packetSentToUpper
attr title  "packets passed to higher layer, sum(packetBytes)"
scalar Topo.client2.eth[0].encap 	pauseSent:count 	0
attr title  "pause sent, count"
scalar Topo.client2.eth[0].encap 	pauseSent:sum 	0
attr title  "pause sent, sum"
scalar Topo.client2.eth[0].encap 	decapPk:count 	4
attr interpolationmode  none
attr source  decapPk
attr title  "packets decapsulated, count"
scalar Topo.client2.eth[0].encap 	decapPk:sum(packetBytes) 	112
attr interpolationmode  none
attr source  decapPk
attr title  "packets decapsulated, sum(packetBytes)"
scalar Topo.client2.eth[0].encap 	encapPk:count 	59
attr interpolationmode  none
attr source  encapPk
attr title  "packets encapsulated, count"
scalar Topo.client2.eth[0].encap 	encapPk:sum(packetBytes) 	74152
attr interpolationmode  none
attr source  encapPk
attr title  "packets encapsulated, sum(packetBytes)"
scalar Topo.client2.udpApp[0] 	"packets sent" 	58
scalar Topo.client2.udpApp[0] 	"packets received" 	0
scalar Topo.client2.udpApp[0] 	rcvdPk:count 	0
attr interpolationmode  none
attr source  rcvdPk
attr title  "packets received, count"
scalar Topo.client2.udpApp[0] 	rcvdPk:sum(packetBytes) 	0
attr interpolationmode  none
attr source  rcvdPk
attr title  "packets received, sum(packetBytes)"
statistic Topo.client2.udpApp[0] 	rcvdPkLifetime:stats
field count 0
field mean -nan
field stddev -nan
field sum 0
field sqrsum 0
field min -nan
field max -nan
attr interpolationmode  none
attr source  messageAge(rcvdPk)
attr title  "received packet lifetime, stats"
attr unit  s
scalar Topo.client2.udpApp[0] 	sentPk:count 	58
attr interpolationmode  none
attr source  sentPk
attr title  "packets sent, count"
scalar Topo.client2.udpApp[0] 	sentPk:sum(packetBytes) 	72500
attr interpolationmode  none
attr source  sentPk
attr title  "packets sent, sum(packetBytes)"
scalar Topo.client2.udp 	droppedPkBadChecksum:count 	0
attr interpolationmode  none
attr title  "packets dropped (checksum error), count"
scalar Topo.client2.udp 	droppedPkWrongPort:count 	0
attr interpolationmode  none
attr title  "packets dropped (wrong port), count"
scalar Topo.client2.udp 	passedUpPk:count 	0
attr interpolationmode  none
attr title  "packets passed up, count"
scalar Topo.client2.udp 	rcvdPk:count 	0
attr interpolationmode  none
attr source  rcvdPk
attr title  "packets received, count"
scalar Topo.client2.udp 	rcvdPk:sum(packetBytes) 	0
attr interpolationmode  none
attr source  rcvdPk
attr title  "packets received, sum(packetBytes)"
statistic Topo.client2.udp 	rcvdPkLifetime:stats
field count 0
field mean -nan
field stddev -nan
field sum 0
field sqrsum 0
field min -nan
field max -nan
attr interpolationmode  none
attr source  messageAge(rcvdPk)
attr title  "received packet lifetime, stats"
attr unit  s
scalar Topo.client2.udp 	sentPk:count 	58
attr interpolationmode  none
attr source  sentPk
attr title  "packets sent, count"
scalar Topo.client2.udp 	sentPk:sum(packetBytes) 	72964
attr interpolationmode  none
attr source  sentPk
attr title  "packets sent, sum(packetBytes)"
scalar Topo.client3.networkLayer.arp 	failedARPResolution:count 	0
attr title  "ARP failed resolutions, count"
scalar Topo.client3.networkLayer.arp 	completedARPResolution:count 	1
attr title  "ARP completed resolutions, count"
scalar Topo.client3.networkLayer.arp 	initiatedARPResolution:count 	1
attr title  "ARP initiated resolutions, count"
scalar Topo.client3.networkLayer.arp 	sentReply:count 	0
attr title  "ARP replies sent, count"
scalar Topo.client3.networkLayer.arp 	sentReq:count 	1
attr title  "ARP request sent, count"
scalar Topo.client3.lo0.lo 	droppedPkBitError:count 	0
attr interpolationmode  none
attr source  dropPkBitError
attr title  "packets dropped/bit error, count"
scalar Topo.client3.lo0.lo 	droppedPkBitError:sum(packetBytes) 	0
attr interpolationmode  none
attr source  dropPkBitError
attr title  "packets dropped/bit error, sum(packetBytes)"
scalar Topo.client3.lo0.lo 	rcvdPkFromHL:count 	0
attr interpolationmode  none
attr source  packetReceivedFromUpper
attr title  "packets received from higher layer, count"
scalar Topo.client3.lo0.lo 	rcvdPkFromHL:sum(packetBytes) 	0
attr interpolationmode  none
attr source  packetReceivedFromUpper
attr title  "packets received from higher layer, sum(packetBytes)"
scalar Topo.client3.lo0.lo 	passedUpPk:count 	0
attr interpolationmode  none
attr source  packetSentToUpper
attr title  "packets passed to higher layer, count"
scalar Topo.client3.lo0.lo 	passedUpPk:sum(packetBytes) 	0
attr interpolationmode  none
attr source  packetSentToUpper
attr title  "packets passed to higher layer, sum(packetBytes)"
scalar Topo.client3.eth[0].mac 	"simulated time" 	35.200098279973
scalar Topo.client3.eth[0].mac 	full-duplex 	1
scalar Topo.client3.eth[0].mac 	"frames/sec sent" 	0.5113622086175
scalar Topo.client3.eth[0].mac 	"frames/sec rcvd" 	0.11363604635944
scalar Topo.client3.eth[0].mac 	"bits/sec sent" 	5021.8041607166
scalar Topo.client3.eth[0].mac 	"bits/sec rcvd" 	58.181655736035
scalar Topo.client3.eth[0].mac 	"rx channel idle (%)" 	99.999934545637
scalar Topo.client3.eth[0].mac 	"rx channel utilization (%)" 	6.545436270304e-05
scalar Topo.client3.eth[0].mac 	droppedPkNotForUs:count 	0
attr interpolationmode  none
attr source  dropPkNotForUs
attr title  "packets dropped/not for us, count"
scalar Topo.client3.eth[0].mac 	droppedPkNotForUs:sum(packetBytes) 	0
attr interpolationmode  none
attr source  dropPkNotForUs
attr title  "packets dropped/not for us, sum(packetBytes)"
scalar Topo.client3.eth[0].mac 	droppedPkIfaceDown:count 	0
attr interpolationmode  none
attr source  dropPkIfaceDown
attr title  "packets dropped/interface down, count"
scalar Topo.client3.eth[0].mac 	droppedPkIfaceDown:sum(packetBytes) 	0
attr interpolationmode  none
attr source  dropPkIfaceDown
attr title  "packets dropped/interface down, sum(packetBytes)"
scalar Topo.client3.eth[0].mac 	droppedPkBitError:count 	0
attr interpolationmode  none
attr source  dropPkBitError
attr title  "packets dropped/bit error, count"
scalar Topo.client3.eth[0].mac 	droppedPkBitError:sum(packetBytes) 	0
attr interpolationmode  none
attr source  dropPkBitError
attr title  "packets dropped/bit error, sum(packetBytes)"
scalar Topo.client3.eth[0].mac 	rxPkFromHL:count 	18
attr interpolationmode  none
attr source  rxPkFromHL
attr title  "packet bytes from higher layer, count"
scalar Topo.client3.eth[0].mac 	rxPkFromHL:sum(packetBytes) 	22096
attr interpolationmode  none
attr source  rxPkFromHL
attr title  "packet bytes from higher layer, sum(packetBytes)"
scalar Topo.client3.eth[0].mac 	rxPausePkUnits:count 	0
attr interpolationmode  none
attr title  "pause units received, count"
scalar Topo.client3.eth[0].mac 	rxPausePkUnits:sum 	0
attr interpolationmode  none
attr title  "pause units received, sum"
scalar Topo.client3.eth[0].mac 	txPausePkUnits:count 	0
attr interpolationmode  none
attr title  "pause units sent, count"
scalar Topo.client3.eth[0].mac 	txPausePkUnits:sum 	0
attr interpolationmode  none
attr title  "pause units sent, sum"
scalar Topo.client3.eth[0].mac 	rxPkOk:count 	4
attr interpolationmode  none
attr source  rxPkOk
attr title  "packets received OK, count"
scalar Topo.client3.eth[0].mac 	rxPkOk:sum(packetBytes) 	256
attr interpolationmode  none
attr source  rxPkOk
attr title  "packets received OK, sum(packetBytes)"
scalar Topo.client3.eth[0].mac 	txPk:count 	18
attr interpolationmode  none
attr source  txPk
attr title  "packets transmitted, count"
scalar Topo.client3.eth[0].mac 	txPk:sum(packetBytes) 	22096
attr interpolationmode  none
attr source  txPk
attr title  "packets transmitted, sum(packetBytes)"
scalar Topo.client3.eth[0].mac 	passedUpPk:count 	4
attr interpolationmode  none
attr source  packetSentToUpper
attr title  "packets passed to higher layer, count"
scalar Topo.client3.eth[0].mac 	passedUpPk:sum(packetBytes) 	256
attr interpolationmode  none
attr source  packetSentToUpper
attr title  "packets passed to higher layer, sum(packetBytes)"
scalar Topo.client3.eth[0].encap 	pauseSent:count 	0
attr title  "pause sent, count"
scalar Topo.client3.eth[0].encap 	pauseSent:sum 	0
attr title  "pause sent, sum"
scalar Topo.client3.eth[0].encap 	decapPk:count 	4
attr interpolationmode  none
attr source  decapPk
attr title  "packets decapsulated, count"
scalar Topo.client3.eth[0].encap 	decapPk:sum(packetBytes) 	112
attr interpolationmode  none
attr source  decapPk
attr title  "packets decapsulated, sum(packetBytes)"
scalar Topo.client3.eth[0].encap 	encapPk:count 	18
attr interpolationmode  none
attr source  encapPk
attr title  "packets encapsulated, count"
scalar Topo.client3.eth[0].encap 	encapPk:sum(packetBytes) 	21754
attr interpolationmode  none
attr source  encapPk
attr title  "packets encapsulated, sum(packetBytes)"
scalar Topo.client3.udpApp[0] 	"packets sent" 	17
scalar Topo.client3.udpApp[0] 	"packets received" 	0
scalar Topo.client3.udpApp[0] 	rcvdPk:count 	0
attr interpolationmode  none
attr source  rcvdPk
attr title  "packets received, count"
scalar Topo.client3.udpApp[0] 	rcvdPk:sum(packetBytes) 	0
attr interpolationmode  none
attr source  rcvdPk
attr title  "packets received, sum(packetBytes)"
statistic Topo.client3.udpApp[0] 	rcvdPkLifetime:stats
field count 0
field mean -nan
field stddev -nan
field sum 0
field sqrsum 0
field min -nan
field max -nan
attr interpolationmode  none
attr source  messageAge(rcvdPk)
attr title  "received packet lifetime, stats"
attr unit  s
scalar Topo.client3.udpApp[0] 	sentPk:count 	17
attr interpolationmode  none
attr source  sentPk
attr title  "packets sent, count"
scalar Topo.client3.udpApp[0] 	sentPk:sum(packetBytes) 	21250
attr interpolationmode  none
attr source  sentPk
attr title  "packets sent, sum(packetBytes)"
scalar Topo.client3.udp 	droppedPkBadChecksum:count 	0
attr interpolationmode  none
attr title  "packets dropped (checksum error), count"
scalar Topo.client3.udp 	droppedPkWrongPort:count 	0
attr interpolationmode  none
attr title  "packets dropped (wrong port), count"
scalar Topo.client3.udp 	passedUpPk:count 	0
attr interpolationmode  none
attr title  "packets passed up, count"
scalar Topo.client3.udp 	rcvdPk:count 	0
attr interpolationmode  none
attr source  rcvdPk
attr title  "packets received, count"
scalar Topo.client3.udp 	rcvdPk:sum(packetBytes) 	0
attr interpolationmode  none
attr source  rcvdPk
attr title  "packets received, sum(packetBytes)"
statistic Topo.client3.udp 	rcvdPkLifetime:stats
field count 0
field mean -nan
field stddev -nan
field sum 0
field sqrsum 0
field min -nan
field max -nan
attr interpolationmode  none
attr source  messageAge(rcvdPk)
attr title  "received packet lifetime, stats"
attr unit  s
scalar Topo.client3.udp 	sentPk:count 	17
attr interpolationmode  none
attr source  sentPk
attr title  "packets sent, count"
scalar Topo.client3.udp 	sentPk:sum(packetBytes) 	21386
attr interpolationmode  none
attr source  sentPk
attr title  "packets sent, sum(packetBytes)"
scalar Topo.client4.networkLayer.arp 	failedARPResolution:count 	0
attr title  "ARP failed resolutions, count"
scalar Topo.client4.networkLayer.arp 	completedARPResolution:count 	1
attr title  "ARP completed resolutions, count"
scalar Topo.client4.networkLayer.arp 	initiatedARPResolution:count 	1
attr title  "ARP initiated resolutions, count"
scalar Topo.client4.networkLayer.arp 	sentReply:count 	0
attr title  "ARP replies sent, count"
scalar Topo.client4.networkLayer.arp 	sentReq:count 	1
attr title  "ARP request sent, count"
scalar Topo.client4.lo0.lo 	droppedPkBitError:count 	0
attr interpolationmode  none
attr source  dropPkBitError
attr title  "packets dropped/bit error, count"
scalar Topo.client4.lo0.lo 	droppedPkBitError:sum(packetBytes) 	0
attr interpolationmode  none
attr source  dropPkBitError
attr title  "packets dropped/bit error, sum(packetBytes)"
scalar Topo.client4.lo0.lo 	rcvdPkFromHL:count 	0
attr interpolationmode  none
attr source  packetReceivedFromUpper
attr title  "packets received from higher layer, count"
scalar Topo.client4.lo0.lo 	rcvdPkFromHL:sum(packetBytes) 	0
attr interpolationmode  none
attr source  packetReceivedFromUpper
attr title  "packets received from higher layer, sum(packetBytes)"
scalar Topo.client4.lo0.lo 	passedUpPk:count 	0
attr interpolationmode  none
attr source  packetSentToUpper
attr title  "packets passed to higher layer, count"
scalar Topo.client4.lo0.lo 	passedUpPk:sum(packetBytes) 	0
attr interpolationmode  none
attr source  packetSentToUpper
attr title  "packets passed to higher layer, sum(packetBytes)"
scalar Topo.client4.eth[0].mac 	"simulated time" 	35.200098279973
scalar Topo.client4.eth[0].mac 	full-duplex 	1
scalar Topo.client4.eth[0].mac 	"frames/sec sent" 	4.9999860398155
scalar Topo.client4.eth[0].mac 	"frames/sec rcvd" 	0.11363604635944
scalar Topo.client4.eth[0].mac 	"bits/sec sent" 	51559.856042578
scalar Topo.client4.eth[0].mac 	"bits/sec rcvd" 	58.181655736035
scalar Topo.client4.eth[0].mac 	"rx channel idle (%)" 	99.999934545637
scalar Topo.client4.eth[0].mac 	"rx channel utilization (%)" 	6.545436270304e-05
scalar Topo.client4.eth[0].mac 	droppedPkNotForUs:count 	0
attr interpolationmode  none
attr source  dropPkNotForUs
attr title  "packets dropped/not for us, count"
scalar Topo.client4.eth[0].mac 	droppedPkNotForUs:sum(packetBytes) 	0
attr interpolationmode  none
attr source  dropPkNotForUs
attr title  "packets dropped/not for us, sum(packetBytes)"
scalar Topo.client4.eth[0].mac 	droppedPkIfaceDown:count 	0
attr interpolationmode  none
attr source  dropPkIfaceDown
attr title  "packets dropped/interface down, count"
scalar Topo.client4.eth[0].mac 	droppedPkIfaceDown:sum(packetBytes) 	0
attr interpolationmode  none
attr source  dropPkIfaceDown
attr title  "packets dropped/interface down, sum(packetBytes)"
scalar Topo.client4.eth[0].mac 	droppedPkBitError:count 	0
attr interpolationmode  none
attr source  dropPkBitError
attr title  "packets dropped/bit error, count"
scalar Topo.client4.eth[0].mac 	droppedPkBitError:sum(packetBytes) 	0
attr interpolationmode  none
attr source  dropPkBitError
attr title  "packets dropped/bit error, sum(packetBytes)"
scalar Topo.client4.eth[0].mac 	rxPkFromHL:count 	177
attr interpolationmode  none
attr source  rxPkFromHL
attr title  "packet bytes from higher layer, count"
scalar Topo.client4.eth[0].mac 	rxPkFromHL:sum(packetBytes) 	228160
attr interpolationmode  none
attr source  rxPkFromHL
attr title  "packet bytes from higher layer, sum(packetBytes)"
scalar Topo.client4.eth[0].mac 	rxPausePkUnits:count 	0
attr interpolationmode  none
attr title  "pause units received, count"
scalar Topo.client4.eth[0].mac 	rxPausePkUnits:sum 	0
attr interpolationmode  none
attr title  "pause units received, sum"
scalar Topo.client4.eth[0].mac 	txPausePkUnits:count 	0
attr interpolationmode  none
attr title  "pause units sent, count"
scalar Topo.client4.eth[0].mac 	txPausePkUnits:sum 	0
attr interpolationmode  none
attr title  "pause units sent, sum"
scalar Topo.client4.eth[0].mac 	rxPkOk:count 	4
attr interpolationmode  none
attr source  rxPkOk
attr title  "packets received OK, count"
scalar Topo.client4.eth[0].mac 	rxPkOk:sum(packetBytes) 	256
attr interpolationmode  none
attr source  rxPkOk
attr title  "packets received OK, sum(packetBytes)"
scalar Topo.client4.eth[0].mac 	txPk:count 	176
attr interpolationmode  none
attr source  txPk
attr title  "packets transmitted, count"
scalar Topo.client4.eth[0].mac 	txPk:sum(packetBytes) 	226864
attr interpolationmode  none
attr source  txPk
attr title  "packets transmitted, sum(packetBytes)"
scalar Topo.client4.eth[0].mac 	passedUpPk:count 	4
attr interpolationmode  none
attr source  packetSentToUpper
attr title  "packets passed to higher layer, count"
scalar Topo.client4.eth[0].mac 	passedUpPk:sum(packetBytes) 	256
attr interpolationmode  none
attr source  packetSentToUpper
attr title  "packets passed to higher layer, sum(packetBytes)"
scalar Topo.client4.eth[0].encap 	pauseSent:count 	0
attr title  "pause sent, count"
scalar Topo.client4.eth[0].encap 	pauseSent:sum 	0
attr title  "pause sent, sum"
scalar Topo.client4.eth[0].encap 	decapPk:count 	4
attr interpolationmode  none
attr source  decapPk
attr title  "packets decapsulated, count"
scalar Topo.client4.eth[0].encap 	decapPk:sum(packetBytes) 	112
attr interpolationmode  none
attr source  decapPk
attr title  "packets decapsulated, sum(packetBytes)"
scalar Topo.client4.eth[0].encap 	encapPk:count 	177
attr interpolationmode  none
attr source  encapPk
attr title  "packets encapsulated, count"
scalar Topo.client4.eth[0].encap 	encapPk:sum(packetBytes) 	224956
attr interpolationmode  none
attr source  encapPk
attr title  "packets encapsulated, sum(packetBytes)"
scalar Topo.client4.udpApp[0] 	"packets sent" 	176
scalar Topo.client4.udpApp[0] 	"packets received" 	0
scalar Topo.client4.udpApp[0] 	rcvdPk:count 	0
attr interpolationmode  none
attr source  rcvdPk
attr title  "packets received, count"
scalar Topo.client4.udpApp[0] 	rcvdPk:sum(packetBytes) 	0
attr interpolationmode  none
attr source  rcvdPk
attr title  "packets received, sum(packetBytes)"
statistic Topo.client4.udpApp[0] 	rcvdPkLifetime:stats
field count 0
field mean -nan
field stddev -nan
field sum 0
field sqrsum 0
field min -nan
field max -nan
attr interpolationmode  none
attr source  messageAge(rcvdPk)
attr title  "received packet lifetime, stats"
attr unit  s
scalar Topo.client4.udpApp[0] 	sentPk:count 	176
attr interpolationmode  none
attr source  sentPk
attr title  "packets sent, count"
scalar Topo.client4.udpApp[0] 	sentPk:sum(packetBytes) 	220000
attr interpolationmode  none
attr source  sentPk
attr title  "packets sent, sum(packetBytes)"
scalar Topo.client4.udp 	droppedPkBadChecksum:count 	0
attr interpolationmode  none
attr title  "packets dropped (checksum error), count"
scalar Topo.client4.udp 	droppedPkWrongPort:count 	0
attr interpolationmode  none
attr title  "packets dropped (wrong port), count"
scalar Topo.client4.udp 	passedUpPk:count 	0
attr interpolationmode  none
attr title  "packets passed up, count"
scalar Topo.client4.udp 	rcvdPk:count 	0
attr interpolationmode  none
attr source  rcvdPk
attr title  "packets received, count"
scalar Topo.client4.udp 	rcvdPk:sum(packetBytes) 	0
attr interpolationmode  none
attr source  rcvdPk
attr title  "packets received, sum(packetBytes)"
statistic Topo.client4.udp 	rcvdPkLifetime:stats
field count 0
field mean -nan
field stddev -nan
field sum 0
field sqrsum 0
field min -nan
field max -nan
attr interpolationmode  none
attr source  messageAge(rcvdPk)
attr title  "received packet lifetime, stats"
attr unit  s
scalar Topo.client4.udp 	sentPk:count 	176
attr interpolationmode  none
attr source  sentPk
attr title  "packets sent, count"
scalar Topo.client4.udp 	sentPk:sum(packetBytes) 	221408
attr interpolationmode  none
attr source  sentPk
attr title  "packets sent, sum(packetBytes)"
scalar Topo.server1.networkLayer.arp 	failedARPResolution:count 	0
attr title  "ARP failed resolutions, count"
scalar Topo.server1.networkLayer.arp 	completedARPResolution:count 	1
attr title  "ARP completed resolutions, count"
scalar Topo.server1.networkLayer.arp 	initiatedARPResolution:count 	0
attr title  "ARP initiated resolutions, count"
scalar Topo.server1.networkLayer.arp 	sentReply:count 	1
attr title  "ARP replies sent, count"
scalar Topo.server1.networkLayer.arp 	sentReq:count 	0
attr title  "ARP request sent, count"
scalar Topo.server1.lo0.lo 	droppedPkBitError:count 	0
attr interpolationmode  none
attr source  dropPkBitError
attr title  "packets dropped/bit error, count"
scalar Topo.server1.lo0.lo 	droppedPkBitError:sum(packetBytes) 	0
attr interpolationmode  none
attr source  dropPkBitError
attr title  "packets dropped/bit error, sum(packetBytes)"
scalar Topo.server1.lo0.lo 	rcvdPkFromHL:count 	0
attr interpolationmode  none
attr source  packetReceivedFromUpper
attr title  "packets received from higher layer, count"
scalar Topo.server1.lo0.lo 	rcvdPkFromHL:sum(packetBytes) 	0
attr interpolationmode  none
attr source  packetReceivedFromUpper
attr title  "packets received from higher layer, sum(packetBytes)"
scalar Topo.server1.lo0.lo 	passedUpPk:count 	0
attr interpolationmode  none
attr source  packetSentToUpper
attr title  "packets passed to higher layer, count"
scalar Topo.server1.lo0.lo 	passedUpPk:sum(packetBytes) 	0
attr interpolationmode  none
attr source  packetSentToUpper
attr title  "packets passed to higher layer, sum(packetBytes)"
scalar Topo.server1.eth[0].mac 	"simulated time" 	35.200098279973
scalar Topo.server1.eth[0].mac 	full-duplex 	1
scalar Topo.server1.eth[0].mac 	"frames/sec sent" 	0.028409011589861
scalar Topo.server1.eth[0].mac 	"frames/sec rcvd" 	10.085199114401
scalar Topo.server1.eth[0].mac 	"bits/sec sent" 	14.545413934009
scalar Topo.server1.eth[0].mac 	"bits/sec rcvd" 	103443.34754519
scalar Topo.server1.eth[0].mac 	"rx channel idle (%)" 	99.895911199711
scalar Topo.server1.eth[0].mac 	"rx channel utilization (%)" 	0.10408880028851
scalar Topo.server1.eth[0].mac 	droppedPkNotForUs:count 	0
attr interpolationmode  none
attr source  dropPkNotForUs
attr title  "packets dropped/not for us, count"
scalar Topo.server1.eth[0].mac 	droppedPkNotForUs:sum(packetBytes) 	0
attr interpolationmode  none
attr source  dropPkNotForUs
attr title  "packets dropped/not for us, sum(packetBytes)"
scalar Topo.server1.eth[0].mac 	droppedPkIfaceDown:count 	0
attr interpolationmode  none
attr source  dropPkIfaceDown
attr title  "packets dropped/interface down, count"
scalar Topo.server1.eth[0].mac 	droppedPkIfaceDown:sum(packetBytes) 	0
attr interpolationmode  none
attr source  dropPkIfaceDown
attr title  "packets dropped/interface down, sum(packetBytes)"
scalar Topo.server1.eth[0].mac 	droppedPkBitError:count 	0
attr interpolationmode  none
attr source  dropPkBitError
attr title  "packets dropped/bit error, count"
scalar Topo.server1.eth[0].mac 	droppedPkBitError:sum(packetBytes) 	0
attr interpolationmode  none
attr source  dropPkBitError
attr title  "packets dropped/bit error, sum(packetBytes)"
scalar Topo.server1.eth[0].mac 	rxPkFromHL:count 	1
attr interpolationmode  none
attr source  rxPkFromHL
attr title  "packet bytes from higher layer, count"
scalar Topo.server1.eth[0].mac 	rxPkFromHL:sum(packetBytes) 	64
attr interpolationmode  none
attr source  rxPkFromHL
attr title  "packet bytes from higher layer, sum(packetBytes)"
scalar Topo.server1.eth[0].mac 	rxPausePkUnits:count 	0
attr interpolationmode  none
attr title  "pause units received, count"
scalar Topo.server1.eth[0].mac 	rxPausePkUnits:sum 	0
attr interpolationmode  none
attr title  "pause units received, sum"
scalar Topo.server1.eth[0].mac 	txPausePkUnits:count 	0
attr interpolationmode  none
attr title  "pause units sent, count"
scalar Topo.server1.eth[0].mac 	txPausePkUnits:sum 	0
attr interpolationmode  none
attr title  "pause units sent, sum"
scalar Topo.server1.eth[0].mac 	rxPkOk:count 	355
attr interpolationmode  none
attr source  rxPkOk
attr title  "packets received OK, count"
scalar Topo.server1.eth[0].mac 	rxPkOk:sum(packetBytes) 	455152
attr interpolationmode  none
attr source  rxPkOk
attr title  "packets received OK, sum(packetBytes)"
scalar Topo.server1.eth[0].mac 	txPk:count 	1
attr interpolationmode  none
attr source  txPk
attr title  "packets transmitted, count"
scalar Topo.server1.eth[0].mac 	txPk:sum(packetBytes) 	64
attr interpolationmode  none
attr source  txPk
attr title  "packets transmitted, sum(packetBytes)"
scalar Topo.server1.eth[0].mac 	passedUpPk:count 	355
attr interpolationmode  none
attr source  packetSentToUpper
attr title  "packets passed to higher layer, count"
scalar Topo.server1.eth[0].mac 	passedUpPk:sum(packetBytes) 	455152
attr interpolationmode  none
attr source  packetSentToUpper
attr title  "packets passed to higher layer, sum(packetBytes)"
scalar Topo.server1.eth[0].encap 	pauseSent:count 	0
attr title  "pause sent, count"
scalar Topo.server1.eth[0].encap 	pauseSent:sum 	0
attr title  "pause sent, sum"
scalar Topo.server1.eth[0].encap 	decapPk:count 	355
attr interpolationmode  none
attr source  decapPk
attr title  "packets decapsulated, count"
scalar Topo.server1.eth[0].encap 	decapPk:sum(packetBytes) 	448690
attr interpolationmode  none
attr source  decapPk
attr title  "packets decapsulated, sum(packetBytes)"
scalar Topo.server1.eth[0].encap 	encapPk:count 	1
attr interpolationmode  none
attr source  encapPk
attr title  "packets encapsulated, count"
scalar Topo.server1.eth[0].encap 	encapPk:sum(packetBytes) 	28
attr interpolationmode  none
attr source  encapPk
attr title  "packets encapsulated, sum(packetBytes)"
scalar Topo.server1.udpApp[0] 	rcvdPk:count 	351
attr interpolationmode  none
attr source  rcvdPk
attr title  "packets received, count"
scalar Topo.server1.udpApp[0] 	rcvdPk:sum(packetBytes) 	438750
attr interpolationmode  none
attr source  rcvdPk
attr title  "packets received, sum(packetBytes)"
scalar Topo.server1.udp 	droppedPkBadChecksum:count 	0
attr interpolationmode  none
attr title  "packets dropped (checksum error), count"
scalar Topo.server1.udp 	droppedPkWrongPort:count 	0
attr interpolationmode  none
attr title  "packets dropped (wrong port), count"
scalar Topo.server1.udp 	passedUpPk:count 	351
attr interpolationmode  none
attr title  "packets passed up, count"
scalar Topo.server1.udp 	rcvdPk:count 	351
attr interpolationmode  none
attr source  rcvdPk
attr title  "packets received, count"
scalar Topo.server1.udp 	rcvdPk:sum(packetBytes) 	441558
attr interpolationmode  none
attr source  rcvdPk
attr title  "packets received, sum(packetBytes)"
statistic Topo.server1.udp 	rcvdPkLifetime:stats
field count 351
field mean 0.00021239749283761
field stddev 2.3554089690806e-05
field sum 0.074551519986
field sqrsum 1.6028734231666e-05
field min 0.00021064
field max 0.000569039992
attr interpolationmode  none
attr source  messageAge(rcvdPk)
attr title  "received packet lifetime, stats"
attr unit  s
scalar Topo.server1.udp 	sentPk:count 	0
attr interpolationmode  none
attr source  sentPk
attr title  "packets sent, count"
scalar Topo.server1.udp 	sentPk:sum(packetBytes) 	0
attr interpolationmode  none
attr source  sentPk
attr title  "packets sent, sum(packetBytes)"
scalar Topo.server2.networkLayer.arp 	failedARPResolution:count 	0
attr title  "ARP failed resolutions, count"
scalar Topo.server2.networkLayer.arp 	completedARPResolution:count 	2
attr title  "ARP completed resolutions, count"
scalar Topo.server2.networkLayer.arp 	initiatedARPResolution:count 	0
attr title  "ARP initiated resolutions, count"
scalar Topo.server2.networkLayer.arp 	sentReply:count 	2
attr title  "ARP replies sent, count"
scalar Topo.server2.networkLayer.arp 	sentReq:count 	0
attr title  "ARP request sent, count"
scalar Topo.server2.lo0.lo 	droppedPkBitError:count 	0
attr interpolationmode  none
attr source  dropPkBitError
attr title  "packets dropped/bit error, count"
scalar Topo.server2.lo0.lo 	droppedPkBitError:sum(packetBytes) 	0
attr interpolationmode  none
attr source  dropPkBitError
attr title  "packets dropped/bit error, sum(packetBytes)"
scalar Topo.server2.lo0.lo 	rcvdPkFromHL:count 	0
attr interpolationmode  none
attr source  packetReceivedFromUpper
attr title  "packets received from higher layer, count"
scalar Topo.server2.lo0.lo 	rcvdPkFromHL:sum(packetBytes) 	0
attr interpolationmode  none
attr source  packetReceivedFromUpper
attr title  "packets received from higher layer, sum(packetBytes)"
scalar Topo.server2.lo0.lo 	passedUpPk:count 	0
attr interpolationmode  none
attr source  packetSentToUpper
attr title  "packets passed to higher layer, count"
scalar Topo.server2.lo0.lo 	passedUpPk:sum(packetBytes) 	0
attr interpolationmode  none
attr source  packetSentToUpper
attr title  "packets passed to higher layer, sum(packetBytes)"
scalar Topo.server2.eth[0].mac 	"simulated time" 	35.200098279973
scalar Topo.server2.eth[0].mac 	full-duplex 	1
scalar Topo.server2.eth[0].mac 	"frames/sec sent" 	0.056818023179722
scalar Topo.server2.eth[0].mac 	"frames/sec rcvd" 	3.3238543560137
scalar Topo.server2.eth[0].mac 	"bits/sec sent" 	29.090827868018
scalar Topo.server2.eth[0].mac 	"bits/sec rcvd" 	33341.725090232
scalar Topo.server2.eth[0].mac 	"rx channel idle (%)" 	99.966445548231
scalar Topo.server2.eth[0].mac 	"rx channel utilization (%)" 	0.033554451769017
scalar Topo.server2.eth[0].mac 	droppedPkNotForUs:count 	0
attr interpolationmode  none
attr source  dropPkNotForUs
attr title  "packets dropped/not for us, count"
scalar Topo.server2.eth[0].mac 	droppedPkNotForUs:sum(packetBytes) 	0
attr interpolationmode  none
attr source  dropPkNotForUs
attr title  "packets dropped/not for us, sum(packetBytes)"
scalar Topo.server2.eth[0].mac 	droppedPkIfaceDown:count 	0
attr interpolationmode  none
attr source  dropPkIfaceDown
attr title  "packets dropped/interface down, count"
scalar Topo.server2.eth[0].mac 	droppedPkIfaceDown:sum(packetBytes) 	0
attr interpolationmode  none
attr source  dropPkIfaceDown
attr title  "packets dropped/interface down, sum(packetBytes)"
scalar Topo.server2.eth[0].mac 	droppedPkBitError:count 	0
attr interpolationmode  none
attr source  dropPkBitError
attr title  "packets dropped/bit error, count"
scalar Topo.server2.eth[0].mac 	droppedPkBitError:sum(packetBytes) 	0
attr interpolationmode  none
attr source  dropPkBitError
attr title  "packets dropped/bit error, sum(packetBytes)"
scalar Topo.server2.eth[0].mac 	rxPkFromHL:count 	2
attr interpolationmode  none
attr source  rxPkFromHL
attr title  "packet bytes from higher layer, count"
scalar Topo.server2.eth[0].mac 	rxPkFromHL:sum(packetBytes) 	128
attr interpolationmode  none
attr source  rxPkFromHL
attr title  "packet bytes from higher layer, sum(packetBytes)"
scalar Topo.server2.eth[0].mac 	rxPausePkUnits:count 	0
attr interpolationmode  none
attr title  "pause units received, count"
scalar Topo.server2.eth[0].mac 	rxPausePkUnits:sum 	0
attr interpolationmode  none
attr title  "pause units received, sum"
scalar Topo.server2.eth[0].mac 	txPausePkUnits:count 	0
attr interpolationmode  none
attr title  "pause units sent, count"
scalar Topo.server2.eth[0].mac 	txPausePkUnits:sum 	0
attr interpolationmode  none
attr title  "pause units sent, sum"
scalar Topo.server2.eth[0].mac 	rxPkOk:count 	117
attr interpolationmode  none
attr source  rxPkOk
attr title  "packets received OK, count"
scalar Topo.server2.eth[0].mac 	rxPkOk:sum(packetBytes) 	146704
attr interpolationmode  none
attr source  rxPkOk
attr title  "packets received OK, sum(packetBytes)"
scalar Topo.server2.eth[0].mac 	txPk:count 	2
attr interpolationmode  none
attr source  txPk
attr title  "packets transmitted, count"
scalar Topo.server2.eth[0].mac 	txPk:sum(packetBytes) 	128
attr interpolationmode  none
attr source  txPk
attr title  "packets transmitted, sum(packetBytes)"
scalar Topo.server2.eth[0].mac 	passedUpPk:count 	117
attr interpolationmode  none
attr source  packetSentToUpper
attr title  "packets passed to higher layer, count"
scalar Topo.server2.eth[0].mac 	passedUpPk:sum(packetBytes) 	146704
attr interpolationmode  none
attr source  packetSentToUpper
attr title  "packets passed to higher layer, sum(packetBytes)"
scalar Topo.server2.eth[0].encap 	pauseSent:count 	0
attr title  "pause sent, count"
scalar Topo.server2.eth[0].encap 	pauseSent:sum 	0
attr title  "pause sent, sum"
scalar Topo.server2.eth[0].encap 	decapPk:count 	117
attr interpolationmode  none
attr source  decapPk
attr title  "packets decapsulated, count"
scalar Topo.server2.eth[0].encap 	decapPk:sum(packetBytes) 	144526
attr interpolationmode  none
attr source  decapPk
attr title  "packets decapsulated, sum(packetBytes)"
scalar Topo.server2.eth[0].encap 	encapPk:count 	2
attr interpolationmode  none
attr source  encapPk
attr title  "packets encapsulated, count"
scalar Topo.server2.eth[0].encap 	encapPk:sum(packetBytes) 	56
attr interpolationmode  none
attr source  encapPk
attr title  "packets encapsulated, sum(packetBytes)"
scalar Topo.server2.udpApp[0] 	rcvdPk:count 	75
attr interpolationmode  none
attr source  rcvdPk
attr title  "packets received, count"
scalar Topo.server2.udpApp[0] 	rcvdPk:sum(packetBytes) 	93750
attr interpolationmode  none
attr source  rcvdPk
attr title  "packets received, sum(packetBytes)"
scalar Topo.server2.udp 	droppedPkBadChecksum:count 	0
attr interpolationmode  none
attr title  "packets dropped (checksum error), count"
scalar Topo.server2.udp 	droppedPkWrongPort:count 	0
attr interpolationmode  none
attr title  "packets dropped (wrong port), count"
scalar Topo.server2.udp 	passedUpPk:count 	75
attr interpolationmode  none
attr title  "packets passed up, count"
scalar Topo.server2.udp 	rcvdPk:count 	75
attr interpolationmode  none
attr source  rcvdPk
attr title  "packets received, count"
scalar Topo.server2.udp 	rcvdPk:sum(packetBytes) 	94350
attr interpolationmode  none
attr source  rcvdPk
attr title  "packets received, sum(packetBytes)"
statistic Topo.server2.udp 	rcvdPkLifetime:stats
field count 75
field mean 0.00023510613208
field stddev 7.7330113156433e-05
field sum 0.017632959906
field sqrsum 4.5881330342796e-06
field min 0.00021064
field max 0.000569039992
attr interpolationmode  none
attr source  messageAge(rcvdPk)
attr title  "received packet lifetime, stats"
attr unit  s
scalar Topo.server2.udp 	sentPk:count 	0
attr interpolationmode  none
attr source  sentPk
attr title  "packets sent, count"
scalar Topo.server2.udp 	sentPk:sum(packetBytes) 	0
attr interpolationmode  none
attr source  sentPk
attr title  "packets sent, sum(packetBytes)"
scalar Topo.server3.networkLayer.arp 	failedARPResolution:count 	0
attr title  "ARP failed resolutions, count"
scalar Topo.server3.networkLayer.arp 	completedARPResolution:count 	1
attr title  "ARP completed resolutions, count"
scalar Topo.server3.networkLayer.arp 	initiatedARPResolution:count 	0
attr title  "ARP initiated resolutions, count"
scalar Topo.server3.networkLayer.arp 	sentReply:count 	1
attr title  "ARP replies sent, count"
scalar Topo.server3.networkLayer.arp 	sentReq:count 	0
attr title  "ARP request sent, count"
scalar Topo.server3.lo0.lo 	droppedPkBitError:count 	0
attr interpolationmode  none
attr source  dropPkBitError
attr title  "packets dropped/bit error, count"
scalar Topo.server3.lo0.lo 	droppedPkBitError:sum(packetBytes) 	0
attr interpolationmode  none
attr source  dropPkBitError
attr title  "packets dropped/bit error, sum(packetBytes)"
scalar Topo.server3.lo0.lo 	rcvdPkFromHL:count 	0
attr interpolationmode  none
attr source  packetReceivedFromUpper
attr title  "packets received from higher layer, count"
scalar Topo.server3.lo0.lo 	rcvdPkFromHL:sum(packetBytes) 	0
attr interpolationmode  none
attr source  packetReceivedFromUpper
attr title  "packets received from higher layer, sum(packetBytes)"
scalar Topo.server3.lo0.lo 	passedUpPk:count 	0
attr interpolationmode  none
attr source  packetSentToUpper
attr title  "packets passed to higher layer, count"
scalar Topo.server3.lo0.lo 	passedUpPk:sum(packetBytes) 	0
attr interpolationmode  none
attr source  packetSentToUpper
attr title  "packets passed to higher layer, sum(packetBytes)"
scalar Topo.server3.eth[0].mac 	"simulated time" 	35.200098279973
scalar Topo.server3.eth[0].mac 	full-duplex 	1
scalar Topo.server3.eth[0].mac 	"frames/sec sent" 	0.028409011589861
scalar Topo.server3.eth[0].mac 	"frames/sec rcvd" 	5.0852130745851
scalar Topo.server3.eth[0].mac 	"bits/sec sent" 	14.545413934009
scalar Topo.server3.eth[0].mac 	"bits/sec rcvd" 	51603.49228438
scalar Topo.server3.eth[0].mac 	"rx channel idle (%)" 	99.948071054079
scalar Topo.server3.eth[0].mac 	"rx channel utilization (%)" 	0.051928945921153
scalar Topo.server3.eth[0].mac 	droppedPkNotForUs:count 	0
attr interpolationmode  none
attr source  dropPkNotForUs
attr title  "packets dropped/not for us, count"
scalar Topo.server3.eth[0].mac 	droppedPkNotForUs:sum(packetBytes) 	0
attr interpolationmode  none
attr source  dropPkNotForUs
attr title  "packets dropped/not for us, sum(packetBytes)"
scalar Topo.server3.eth[0].mac 	droppedPkIfaceDown:count 	0
attr interpolationmode  none
attr source  dropPkIfaceDown
attr title  "packets dropped/interface down, count"
scalar Topo.server3.eth[0].mac 	droppedPkIfaceDown:sum(packetBytes) 	0
attr interpolationmode  none
attr source  dropPkIfaceDown
attr title  "packets dropped/interface down, sum(packetBytes)"
scalar Topo.server3.eth[0].mac 	droppedPkBitError:count 	0
attr interpolationmode  none
attr source  dropPkBitError
attr title  "packets dropped/bit error, count"
scalar Topo.server3.eth[0].mac 	droppedPkBitError:sum(packetBytes) 	0
attr interpolationmode  none
attr source  dropPkBitError
attr title  "packets dropped/bit error, sum(packetBytes)"
scalar Topo.server3.eth[0].mac 	rxPkFromHL:count 	1
attr interpolationmode  none
attr source  rxPkFromHL
attr title  "packet bytes from higher layer, count"
scalar Topo.server3.eth[0].mac 	rxPkFromHL:sum(packetBytes) 	64
attr interpolationmode  none
attr source  rxPkFromHL
attr title  "packet bytes from higher layer, sum(packetBytes)"
scalar Topo.server3.eth[0].mac 	rxPausePkUnits:count 	0
attr interpolationmode  none
attr title  "pause units received, count"
scalar Topo.server3.eth[0].mac 	rxPausePkUnits:sum 	0
attr interpolationmode  none
attr title  "pause units received, sum"
scalar Topo.server3.eth[0].mac 	txPausePkUnits:count 	0
attr interpolationmode  none
attr title  "pause units sent, count"
scalar Topo.server3.eth[0].mac 	txPausePkUnits:sum 	0
attr interpolationmode  none
attr title  "pause units sent, sum"
scalar Topo.server3.eth[0].mac 	rxPkOk:count 	179
attr interpolationmode  none
attr source  rxPkOk
attr title  "packets received OK, count"
scalar Topo.server3.eth[0].mac 	rxPkOk:sum(packetBytes) 	227056
attr interpolationmode  none
attr source  rxPkOk
attr title  "packets received OK, sum(packetBytes)"
scalar Topo.server3.eth[0].mac 	txPk:count 	1
attr interpolationmode  none
attr source  txPk
attr title  "packets transmitted, count"
scalar Topo.server3.eth[0].mac 	txPk:sum(packetBytes) 	64
attr interpolationmode  none
attr source  txPk
attr title  "packets transmitted, sum(packetBytes)"
scalar Topo.server3.eth[0].mac 	passedUpPk:count 	179
attr interpolationmode  none
attr source  packetSentToUpper
attr title  "packets passed to higher layer, count"
scalar Topo.server3.eth[0].mac 	passedUpPk:sum(packetBytes) 	227056
attr interpolationmode  none
attr source  packetSentToUpper
attr title  "packets passed to higher layer, sum(packetBytes)"
scalar Topo.server3.eth[0].encap 	pauseSent:count 	0
attr title  "pause sent, count"
scalar Topo.server3.eth[0].encap 	pauseSent:sum 	0
attr title  "pause sent, sum"
scalar Topo.server3.eth[0].encap 	decapPk:count 	179
attr interpolationmode  none
attr source  decapPk
attr title  "packets decapsulated, count"
scalar Topo.server3.eth[0].encap 	decapPk:sum(packetBytes) 	223762
attr interpolationmode  none
attr source  decapPk
attr title  "packets decapsulated, sum(packetBytes)"
scalar Topo.server3.eth[0].encap 	encapPk:count 	1
attr interpolationmode  none
attr source  encapPk
attr title  "packets encapsulated, count"
scalar Topo.server3.eth[0].encap 	encapPk:sum(packetBytes) 	28
attr interpolationmode  none
attr source  encapPk
attr title  "packets encapsulated, sum(packetBytes)"
scalar Topo.server3.udpApp[0] 	rcvdPk:count 	175
attr interpolationmode  none
attr source  rcvdPk
attr title  "packets received, count"
scalar Topo.server3.udpApp[0] 	rcvdPk:sum(packetBytes) 	218750
attr interpolationmode  none
attr source  rcvdPk
attr title  "packets received, sum(packetBytes)"
scalar Topo.server3.udp 	droppedPkBadChecksum:count 	0
attr interpolationmode  none
attr title  "packets dropped (checksum error), count"
scalar Topo.server3.udp 	droppedPkWrongPort:count 	0
attr interpolationmode  none
attr title  "packets dropped (wrong port), count"
scalar Topo.server3.udp 	passedUpPk:count 	175
attr interpolationmode  none
attr title  "packets passed up, count"
scalar Topo.server3.udp 	rcvdPk:count 	175
attr interpolationmode  none
attr source  rcvdPk
attr title  "packets received, count"
scalar Topo.server3.udp 	rcvdPk:sum(packetBytes) 	220150
attr interpolationmode  none
attr source  rcvdPk
attr title  "packets received, sum(packetBytes)"
statistic Topo.server3.udp 	rcvdPkLifetime:stats
field count 175
field mean 0.00021437874262286
field stddev 3.5032769943702e-05
field sum 0.037516279959
field sqrsum 8.2562422502651e-06
field min 0.00021064
field max 0.000569039992
attr interpolationmode  none
attr source  messageAge(rcvdPk)
attr title  "received packet lifetime, stats"
attr unit  s
scalar Topo.server3.udp 	sentPk:count 	0
attr interpolationmode  none
attr source  sentPk
attr title  "packets sent, count"
scalar Topo.server3.udp 	sentPk:sum(packetBytes) 	0
attr interpolationmode  none
attr source  sentPk
attr title  "packets sent, sum(packetBytes)"
scalar Topo.s1.networkLayer.arp 	failedARPResolution:count 	0
attr title  "ARP failed resolutions, count"
scalar Topo.s1.networkLayer.arp 	completedARPResolution:count 	1
attr title  "ARP completed resolutions, count"
scalar Topo.s1.networkLayer.arp 	initiatedARPResolution:count 	1
attr title  "ARP initiated resolutions, count"
scalar Topo.s1.networkLayer.arp 	sentReply:count 	0
attr title  "ARP replies sent, count"
scalar Topo.s1.networkLayer.arp 	sentReq:count 	1
attr title  "ARP request sent, count"
scalar Topo.s1.eth[0].mac 	"simulated time" 	35.200098279973
scalar Topo.s1.eth[0].mac 	full-duplex 	1
scalar Topo.s1.eth[0].mac 	"frames/sec sent" 	10.085199114401
scalar Topo.s1.eth[0].mac 	"frames/sec rcvd" 	10.028381091221
scalar Topo.s1.eth[0].mac 	"bits/sec sent" 	18883.129095642
scalar Topo.s1.eth[0].mac 	"bits/sec rcvd" 	18614.038937862
scalar Topo.s1.eth[0].mac 	"rx channel idle (%)" 	99.980744144672
scalar Topo.s1.eth[0].mac 	"rx channel utilization (%)" 	0.019255855327701
scalar Topo.s1.eth[0].mac 	droppedPkNotForUs:count 	0
attr interpolationmode  none
attr source  dropPkNotForUs
attr title  "packets dropped/not for us, count"
scalar Topo.s1.eth[0].mac 	droppedPkNotForUs:sum(packetBytes) 	0
attr interpolationmode  none
attr source  dropPkNotForUs
attr title  "packets dropped/not for us, sum(packetBytes)"
scalar Topo.s1.eth[0].mac 	droppedPkIfaceDown:count 	0
attr interpolationmode  none
attr source  dropPkIfaceDown
attr title  "packets dropped/interface down, count"
scalar Topo.s1.eth[0].mac 	droppedPkIfaceDown:sum(packetBytes) 	0
attr interpolationmode  none
attr source  dropPkIfaceDown
attr title  "packets dropped/interface down, sum(packetBytes)"
scalar Topo.s1.eth[0].mac 	droppedPkBitError:count 	0
attr interpolationmode  none
attr source  dropPkBitError
attr title  "packets dropped/bit error, count"
scalar Topo.s1.eth[0].mac 	droppedPkBitError:sum(packetBytes) 	0
attr interpolationmode  none
attr source  dropPkBitError
attr title  "packets dropped/bit error, sum(packetBytes)"
scalar Topo.s1.eth[0].mac 	rxPkFromHL:count 	356
attr interpolationmode  none
attr source  rxPkFromHL
attr title  "packet bytes from higher layer, count"
scalar Topo.s1.eth[0].mac 	rxPkFromHL:sum(packetBytes) 	83369
attr interpolationmode  none
attr source  rxPkFromHL
attr title  "packet bytes from higher layer, sum(packetBytes)"
scalar Topo.s1.eth[0].mac 	rxPausePkUnits:count 	0
attr interpolationmode  none
attr title  "pause units received, count"
scalar Topo.s1.eth[0].mac 	rxPausePkUnits:sum 	0
attr interpolationmode  none
attr title  "pause units received, sum"
scalar Topo.s1.eth[0].mac 	txPausePkUnits:count 	0
attr interpolationmode  none
attr title  "pause units sent, count"
scalar Topo.s1.eth[0].mac 	txPausePkUnits:sum 	0
attr interpolationmode  none
attr title  "pause units sent, sum"
scalar Topo.s1.eth[0].mac 	rxPkOk:count 	353
attr interpolationmode  none
attr source  rxPkOk
attr title  "packets received OK, count"
scalar Topo.s1.eth[0].mac 	rxPkOk:sum(packetBytes) 	81902
attr interpolationmode  none
attr source  rxPkOk
attr title  "packets received OK, sum(packetBytes)"
scalar Topo.s1.eth[0].mac 	txPk:count 	355
attr interpolationmode  none
attr source  txPk
attr title  "packets transmitted, count"
scalar Topo.s1.eth[0].mac 	txPk:sum(packetBytes) 	83086
attr interpolationmode  none
attr source  txPk
attr title  "packets transmitted, sum(packetBytes)"
scalar Topo.s1.eth[0].mac 	passedUpPk:count 	353
attr interpolationmode  none
attr source  packetSentToUpper
attr title  "packets passed to higher layer, count"
scalar Topo.s1.eth[0].mac 	passedUpPk:sum(packetBytes) 	81902
attr interpolationmode  none
attr source  packetSentToUpper
attr title  "packets passed to higher layer, sum(packetBytes)"
scalar Topo.s1.eth[0].encap 	pauseSent:count 	0
attr title  "pause sent, count"
scalar Topo.s1.eth[0].encap 	pauseSent:sum 	0
attr title  "pause sent, sum"
scalar Topo.s1.eth[0].encap 	decapPk:count 	353
attr interpolationmode  none
attr source  decapPk
attr title  "packets decapsulated, count"
scalar Topo.s1.eth[0].encap 	decapPk:sum(packetBytes) 	74346
attr interpolationmode  none
attr source  decapPk
attr title  "packets decapsulated, sum(packetBytes)"
scalar Topo.s1.eth[0].encap 	encapPk:count 	356
attr interpolationmode  none
attr source  encapPk
attr title  "packets encapsulated, count"
scalar Topo.s1.eth[0].encap 	encapPk:sum(packetBytes) 	75721
attr interpolationmode  none
attr source  encapPk
attr title  "packets encapsulated, sum(packetBytes)"
scalar Topo.s1.etherMAC[0] 	"simulated time" 	35.200098279973
scalar Topo.s1.etherMAC[0] 	full-duplex 	1
scalar Topo.s1.etherMAC[0] 	"frames/sec sent" 	0.11363604635944
scalar Topo.s1.etherMAC[0] 	"frames/sec rcvd" 	9.9999720796311
scalar Topo.s1.etherMAC[0] 	"bits/sec sent" 	58.181655736035
scalar Topo.s1.etherMAC[0] 	"bits/sec rcvd" 	103399.71130339
scalar Topo.s1.etherMAC[0] 	"rx channel idle (%)" 	99.895960290484
scalar Topo.s1.etherMAC[0] 	"rx channel utilization (%)" 	0.10403970951648
scalar Topo.s1.etherMAC[0] 	"rx channel collision (%)" 	0
scalar Topo.s1.etherMAC[0] 	collisions 	0
scalar Topo.s1.etherMAC[0] 	backoffs 	0
scalar Topo.s1.etherMAC[0] 	droppedPkNotForUs:count 	0
attr interpolationmode  none
attr source  dropPkNotForUs
attr title  "packets dropped/not for us, count"
scalar Topo.s1.etherMAC[0] 	droppedPkNotForUs:sum(packetBytes) 	0
attr interpolationmode  none
attr source  dropPkNotForUs
attr title  "packets dropped/not for us, sum(packetBytes)"
scalar Topo.s1.etherMAC[0] 	droppedPkIfaceDown:count 	0
attr interpolationmode  none
attr source  dropPkIfaceDown
attr title  "packets dropped/interface down, count"
scalar Topo.s1.etherMAC[0] 	droppedPkIfaceDown:sum(packetBytes) 	0
attr interpolationmode  none
attr source  dropPkIfaceDown
attr title  "packets dropped/interface down, sum(packetBytes)"
scalar Topo.s1.etherMAC[0] 	droppedPkBitError:count 	0
attr interpolationmode  none
attr source  dropPkBitError
attr title  "packets dropped/bit error, count"
scalar Topo.s1.etherMAC[0] 	droppedPkBitError:sum(packetBytes) 	0
attr interpolationmode  none
attr source  dropPkBitError
attr title  "packets dropped/bit error, sum(packetBytes)"
scalar Topo.s1.etherMAC[0] 	rxPkFromHL:count 	4
attr interpolationmode  none
attr source  rxPkFromHL
attr title  "packet bytes from higher layer, count"
scalar Topo.s1.etherMAC[0] 	rxPkFromHL:sum(packetBytes) 	256
attr interpolationmode  none
attr source  rxPkFromHL
attr title  "packet bytes from higher layer, sum(packetBytes)"
scalar Topo.s1.etherMAC[0] 	rxPausePkUnits:count 	0
attr interpolationmode  none
attr title  "pause units received, count"
scalar Topo.s1.etherMAC[0] 	rxPausePkUnits:sum 	0
attr interpolationmode  none
attr title  "pause units received, sum"
scalar Topo.s1.etherMAC[0] 	txPausePkUnits:count 	0
attr interpolationmode  none
attr title  "pause units sent, count"
scalar Topo.s1.etherMAC[0] 	txPausePkUnits:sum 	0
attr interpolationmode  none
attr title  "pause units sent, sum"
scalar Topo.s1.etherMAC[0] 	rxPkOk:count 	352
attr interpolationmode  none
attr source  rxPkOk
attr title  "packets received OK, count"
scalar Topo.s1.etherMAC[0] 	rxPkOk:sum(packetBytes) 	454960
attr interpolationmode  none
attr source  rxPkOk
attr title  "packets received OK, sum(packetBytes)"
scalar Topo.s1.etherMAC[0] 	txPk:count 	4
attr interpolationmode  none
attr source  txPk
attr title  "packets transmitted, count"
scalar Topo.s1.etherMAC[0] 	txPk:sum(packetBytes) 	256
attr interpolationmode  none
attr source  txPk
attr title  "packets transmitted, sum(packetBytes)"
scalar Topo.s1.etherMAC[0] 	backoff:count 	0
attr interpolationmode  none
attr title  "backoff, count"
scalar Topo.s1.etherMAC[0] 	collision:count 	0
attr interpolationmode  none
attr title  "collision, count"
scalar Topo.s1.etherMAC[0] 	passedUpPk:count 	352
attr interpolationmode  none
attr source  packetSentToUpper
attr title  "packets passed to higher layer, count"
scalar Topo.s1.etherMAC[0] 	passedUpPk:sum(packetBytes) 	454960
attr interpolationmode  none
attr source  packetSentToUpper
attr title  "packets passed to higher layer, sum(packetBytes)"
scalar Topo.s1.etherMAC[1] 	"simulated time" 	35.200098279973
scalar Topo.s1.etherMAC[1] 	full-duplex 	1
scalar Topo.s1.etherMAC[1] 	"frames/sec sent" 	0.11363604635944
scalar Topo.s1.etherMAC[1] 	"frames/sec rcvd" 	1.6761316838018
scalar Topo.s1.etherMAC[1] 	"bits/sec sent" 	58.181655736035
scalar Topo.s1.etherMAC[1] 	"bits/sec rcvd" 	17098.134079427
scalar Topo.s1.etherMAC[1] 	"rx channel idle (%)" 	99.982794593493
scalar Topo.s1.etherMAC[1] 	"rx channel utilization (%)" 	0.017205406507191
scalar Topo.s1.etherMAC[1] 	"rx channel collision (%)" 	0
scalar Topo.s1.etherMAC[1] 	collisions 	0
scalar Topo.s1.etherMAC[1] 	backoffs 	0
scalar Topo.s1.etherMAC[1] 	droppedPkNotForUs:count 	0
attr interpolationmode  none
attr source  dropPkNotForUs
attr title  "packets dropped/not for us, count"
scalar Topo.s1.etherMAC[1] 	droppedPkNotForUs:sum(packetBytes) 	0
attr interpolationmode  none
attr source  dropPkNotForUs
attr title  "packets dropped/not for us, sum(packetBytes)"
scalar Topo.s1.etherMAC[1] 	droppedPkIfaceDown:count 	0
attr interpolationmode  none
attr source  dropPkIfaceDown
attr title  "packets dropped/interface down, count"
scalar Topo.s1.etherMAC[1] 	droppedPkIfaceDown:sum(packetBytes) 	0
attr interpolationmode  none
attr source  dropPkIfaceDown
attr title  "packets dropped/interface down, sum(packetBytes)"
scalar Topo.s1.etherMAC[1] 	droppedPkBitError:count 	0
attr interpolationmode  none
attr source  dropPkBitError
attr title  "packets dropped/bit error, count"
scalar Topo.s1.etherMAC[1] 	droppedPkBitError:sum(packetBytes) 	0
attr interpolationmode  none
attr source  dropPkBitError
attr title  "packets dropped/bit error, sum(packetBytes)"
scalar Topo.s1.etherMAC[1] 	rxPkFromHL:count 	4
attr interpolationmode  none
attr source  rxPkFromHL
attr title  "packet bytes from higher layer, count"
scalar Topo.s1.etherMAC[1] 	rxPkFromHL:sum(packetBytes) 	256
attr interpolationmode  none
attr source  rxPkFromHL
attr title  "packet bytes from higher layer, sum(packetBytes)"
scalar Topo.s1.etherMAC[1] 	rxPausePkUnits:count 	0
attr interpolationmode  none
attr title  "pause units received, count"
scalar Topo.s1.etherMAC[1] 	rxPausePkUnits:sum 	0
attr interpolationmode  none
attr title  "pause units received, sum"
scalar Topo.s1.etherMAC[1] 	txPausePkUnits:count 	0
attr interpolationmode  none
attr title  "pause units sent, count"
scalar Topo.s1.etherMAC[1] 	txPausePkUnits:sum 	0
attr interpolationmode  none
attr title  "pause units sent, sum"
scalar Topo.s1.etherMAC[1] 	rxPkOk:count 	59
attr interpolationmode  none
attr source  rxPkOk
attr title  "packets received OK, count"
scalar Topo.s1.etherMAC[1] 	rxPkOk:sum(packetBytes) 	75232
attr interpolationmode  none
attr source  rxPkOk
attr title  "packets received OK, sum(packetBytes)"
scalar Topo.s1.etherMAC[1] 	txPk:count 	4
attr interpolationmode  none
attr source  txPk
attr title  "packets transmitted, count"
scalar Topo.s1.etherMAC[1] 	txPk:sum(packetBytes) 	256
attr interpolationmode  none
attr source  txPk
attr title  "packets transmitted, sum(packetBytes)"
scalar Topo.s1.etherMAC[1] 	backoff:count 	0
attr interpolationmode  none
attr title  "backoff, count"
scalar Topo.s1.etherMAC[1] 	collision:count 	0
attr interpolationmode  none
attr title  "collision, count"
scalar Topo.s1.etherMAC[1] 	passedUpPk:count 	59
attr interpolationmode  none
attr source  packetSentToUpper
attr title  "packets passed to higher layer, count"
scalar Topo.s1.etherMAC[1] 	passedUpPk:sum(packetBytes) 	75232
attr interpolationmode  none
attr source  packetSentToUpper
attr title  "packets passed to higher layer, sum(packetBytes)"
scalar Topo.s1.etherMAC[2] 	"simulated time" 	35.200098279973
scalar Topo.s1.etherMAC[2] 	full-duplex 	1
scalar Topo.s1.etherMAC[2] 	"frames/sec sent" 	0.11363604635944
scalar Topo.s1.etherMAC[2] 	"frames/sec rcvd" 	0.5113622086175
scalar Topo.s1.etherMAC[2] 	"bits/sec sent" 	58.181655736035
scalar Topo.s1.etherMAC[2] 	"bits/sec rcvd" 	5021.8041607166
scalar Topo.s1.etherMAC[2] 	"rx channel idle (%)" 	99.994945468658
scalar Topo.s1.etherMAC[2] 	"rx channel utilization (%)" 	0.0050545313420681
scalar Topo.s1.etherMAC[2] 	"rx channel collision (%)" 	0
scalar Topo.s1.etherMAC[2] 	collisions 	0
scalar Topo.s1.etherMAC[2] 	backoffs 	0
scalar Topo.s1.etherMAC[2] 	droppedPkNotForUs:count 	0
attr interpolationmode  none
attr source  dropPkNotForUs
attr title  "packets dropped/not for us, count"
scalar Topo.s1.etherMAC[2] 	droppedPkNotForUs:sum(packetBytes) 	0
attr interpolationmode  none
attr source  dropPkNotForUs
attr title  "packets dropped/not for us, sum(packetBytes)"
scalar Topo.s1.etherMAC[2] 	droppedPkIfaceDown:count 	0
attr interpolationmode  none
attr source  dropPkIfaceDown
attr title  "packets dropped/interface down, count"
scalar Topo.s1.etherMAC[2] 	droppedPkIfaceDown:sum(packetBytes) 	0
attr interpolationmode  none
attr source  dropPkIfaceDown
attr title  "packets dropped/interface down, sum(packetBytes)"
scalar Topo.s1.etherMAC[2] 	droppedPkBitError:count 	0
attr interpolationmode  none
attr source  dropPkBitError
attr title  "packets dropped/bit error, count"
scalar Topo.s1.etherMAC[2] 	droppedPkBitError:sum(packetBytes) 	0
attr interpolationmode  none
attr source  dropPkBitError
attr title  "packets dropped/bit error, sum(packetBytes)"
scalar Topo.s1.etherMAC[2] 	rxPkFromHL:count 	4
attr interpolationmode  none
attr source  rxPkFromHL
attr title  "packet bytes from higher layer, count"
scalar Topo.s1.etherMAC[2] 	rxPkFromHL:sum(packetBytes) 	256
attr interpolationmode  none
attr source  rxPkFromHL
attr title  "packet bytes from higher layer, sum(packetBytes)"
scalar Topo.s1.etherMAC[2] 	rxPausePkUnits:count 	0
attr interpolationmode  none
attr title  "pause units received, count"
scalar Topo.s1.etherMAC[2] 	rxPausePkUnits:sum 	0
attr interpolationmode  none
attr title  "pause units received, sum"
scalar Topo.s1.etherMAC[2] 	txPausePkUnits:count 	0
attr interpolationmode  none
attr title  "pause units sent, count"
scalar Topo.s1.etherMAC[2] 	txPausePkUnits:sum 	0
attr interpolationmode  none
attr title  "pause units sent, sum"
scalar Topo.s1.etherMAC[2] 	rxPkOk:count 	18
attr interpolationmode  none
attr source  rxPkOk
attr title  "packets received OK, count"
scalar Topo.s1.etherMAC[2] 	rxPkOk:sum(packetBytes) 	22096
attr interpolationmode  none
attr source  rxPkOk
attr title  "packets received OK, sum(packetBytes)"
scalar Topo.s1.etherMAC[2] 	txPk:count 	4
attr interpolationmode  none
attr source  txPk
attr title  "packets transmitted, count"
scalar Topo.s1.etherMAC[2] 	txPk:sum(packetBytes) 	256
attr interpolationmode  none
attr source  txPk
attr title  "packets transmitted, sum(packetBytes)"
scalar Topo.s1.etherMAC[2] 	backoff:count 	0
attr interpolationmode  none
attr title  "backoff, count"
scalar Topo.s1.etherMAC[2] 	collision:count 	0
attr interpolationmode  none
attr title  "collision, count"
scalar Topo.s1.etherMAC[2] 	passedUpPk:count 	18
attr interpolationmode  none
attr source  packetSentToUpper
attr title  "packets passed to higher layer, count"
scalar Topo.s1.etherMAC[2] 	passedUpPk:sum(packetBytes) 	22096
attr interpolationmode  none
attr source  packetSentToUpper
attr title  "packets passed to higher layer, sum(packetBytes)"
scalar Topo.s1.etherMAC[3] 	"simulated time" 	35.200098279973
scalar Topo.s1.etherMAC[3] 	full-duplex 	1
scalar Topo.s1.etherMAC[3] 	"frames/sec sent" 	0.11363604635944
scalar Topo.s1.etherMAC[3] 	"frames/sec rcvd" 	4.9999860398155
scalar Topo.s1.etherMAC[3] 	"bits/sec sent" 	58.181655736035
scalar Topo.s1.etherMAC[3] 	"bits/sec rcvd" 	51559.856042578
scalar Topo.s1.etherMAC[3] 	"rx channel idle (%)" 	99.948120144851
scalar Topo.s1.etherMAC[3] 	"rx channel utilization (%)" 	0.051879855149126
scalar Topo.s1.etherMAC[3] 	"rx channel collision (%)" 	0
scalar Topo.s1.etherMAC[3] 	collisions 	0
scalar Topo.s1.etherMAC[3] 	backoffs 	0
scalar Topo.s1.etherMAC[3] 	droppedPkNotForUs:count 	0
attr interpolationmode  none
attr source  dropPkNotForUs
attr title  "packets dropped/not for us, count"
scalar Topo.s1.etherMAC[3] 	droppedPkNotForUs:sum(packetBytes) 	0
attr interpolationmode  none
attr source  dropPkNotForUs
attr title  "packets dropped/not for us, sum(packetBytes)"
scalar Topo.s1.etherMAC[3] 	droppedPkIfaceDown:count 	0
attr interpolationmode  none
attr source  dropPkIfaceDown
attr title  "packets dropped/interface down, count"
scalar Topo.s1.etherMAC[3] 	droppedPkIfaceDown:sum(packetBytes) 	0
attr interpolationmode  none
attr source  dropPkIfaceDown
attr title  "packets dropped/interface down, sum(packetBytes)"
scalar Topo.s1.etherMAC[3] 	droppedPkBitError:count 	0
attr interpolationmode  none
attr source  dropPkBitError
attr title  "packets dropped/bit error, count"
scalar Topo.s1.etherMAC[3] 	droppedPkBitError:sum(packetBytes) 	0
attr interpolationmode  none
attr source  dropPkBitError
attr title  "packets dropped/bit error, sum(packetBytes)"
scalar Topo.s1.etherMAC[3] 	rxPkFromHL:count 	4
attr interpolationmode  none
attr source  rxPkFromHL
attr title  "packet bytes from higher layer, count"
scalar Topo.s1.etherMAC[3] 	rxPkFromHL:sum(packetBytes) 	256
attr interpolationmode  none
attr source  rxPkFromHL
attr title  "packet bytes from higher layer, sum(packetBytes)"
scalar Topo.s1.etherMAC[3] 	rxPausePkUnits:count 	0
attr interpolationmode  none
attr title  "pause units received, count"
scalar Topo.s1.etherMAC[3] 	rxPausePkUnits:sum 	0
attr interpolationmode  none
attr title  "pause units received, sum"
scalar Topo.s1.etherMAC[3] 	txPausePkUnits:count 	0
attr interpolationmode  none
attr title  "pause units sent, count"
scalar Topo.s1.etherMAC[3] 	txPausePkUnits:sum 	0
attr interpolationmode  none
attr title  "pause units sent, sum"
scalar Topo.s1.etherMAC[3] 	rxPkOk:count 	176
attr interpolationmode  none
attr source  rxPkOk
attr title  "packets received OK, count"
scalar Topo.s1.etherMAC[3] 	rxPkOk:sum(packetBytes) 	226864
attr interpolationmode  none
attr source  rxPkOk
attr title  "packets received OK, sum(packetBytes)"
scalar Topo.s1.etherMAC[3] 	txPk:count 	4
attr interpolationmode  none
attr source  txPk
attr title  "packets transmitted, count"
scalar Topo.s1.etherMAC[3] 	txPk:sum(packetBytes) 	256
attr interpolationmode  none
attr source  txPk
attr title  "packets transmitted, sum(packetBytes)"
scalar Topo.s1.etherMAC[3] 	backoff:count 	0
attr interpolationmode  none
attr title  "backoff, count"
scalar Topo.s1.etherMAC[3] 	collision:count 	0
attr interpolationmode  none
attr title  "collision, count"
scalar Topo.s1.etherMAC[3] 	passedUpPk:count 	176
attr interpolationmode  none
attr source  packetSentToUpper
attr title  "packets passed to higher layer, count"
scalar Topo.s1.etherMAC[3] 	passedUpPk:sum(packetBytes) 	226864
attr interpolationmode  none
attr source  packetSentToUpper
attr title  "packets passed to higher layer, sum(packetBytes)"
scalar Topo.s1.etherMAC[4] 	"simulated time" 	35.200098279973
scalar Topo.s1.etherMAC[4] 	full-duplex 	1
scalar Topo.s1.etherMAC[4] 	"frames/sec sent" 	10.085199114401
scalar Topo.s1.etherMAC[4] 	"frames/sec rcvd" 	0.028409011589861
scalar Topo.s1.etherMAC[4] 	"bits/sec sent" 	103443.34754519
scalar Topo.s1.etherMAC[4] 	"bits/sec rcvd" 	14.545413934009
scalar Topo.s1.etherMAC[4] 	"rx channel idle (%)" 	99.999983636409
scalar Topo.s1.etherMAC[4] 	"rx channel utilization (%)" 	1.636359067576e-05
scalar Topo.s1.etherMAC[4] 	"rx channel collision (%)" 	0
scalar Topo.s1.etherMAC[4] 	collisions 	0
scalar Topo.s1.etherMAC[4] 	backoffs 	0
scalar Topo.s1.etherMAC[4] 	droppedPkNotForUs:count 	0
attr interpolationmode  none
attr source  dropPkNotForUs
attr title  "packets dropped/not for us, count"
scalar Topo.s1.etherMAC[4] 	droppedPkNotForUs:sum(packetBytes) 	0
attr interpolationmode  none
attr source  dropPkNotForUs
attr title  "packets dropped/not for us, sum(packetBytes)"
scalar Topo.s1.etherMAC[4] 	droppedPkIfaceDown:count 	0
attr interpolationmode  none
attr source  dropPkIfaceDown
attr title  "packets dropped/interface down, count"
scalar Topo.s1.etherMAC[4] 	droppedPkIfaceDown:sum(packetBytes) 	0
attr interpolationmode  none
attr source  dropPkIfaceDown
attr title  "packets dropped/interface down, sum(packetBytes)"
scalar Topo.s1.etherMAC[4] 	droppedPkBitError:count 	0
attr interpolationmode  none
attr source  dropPkBitError
attr title  "packets dropped/bit error, count"
scalar Topo.s1.etherMAC[4] 	droppedPkBitError:sum(packetBytes) 	0
attr interpolationmode  none
attr source  dropPkBitError
attr title  "packets dropped/bit error, sum(packetBytes)"
scalar Topo.s1.etherMAC[4] 	rxPkFromHL:count 	355
attr interpolationmode  none
attr source  rxPkFromHL
attr title  "packet bytes from higher layer, count"
scalar Topo.s1.etherMAC[4] 	rxPkFromHL:sum(packetBytes) 	455152
attr interpolationmode  none
attr source  rxPkFromHL
attr title  "packet bytes from higher layer, sum(packetBytes)"
scalar Topo.s1.etherMAC[4] 	rxPausePkUnits:count 	0
attr interpolationmode  none
attr title  "pause units received, count"
scalar Topo.s1.etherMAC[4] 	rxPausePkUnits:sum 	0
attr interpolationmode  none
attr title  "pause units received, sum"
scalar Topo.s1.etherMAC[4] 	txPausePkUnits:count 	0
attr interpolationmode  none
attr title  "pause units sent, count"
scalar Topo.s1.etherMAC[4] 	txPausePkUnits:sum 	0
attr interpolationmode  none
attr title  "pause units sent, sum"
scalar Topo.s1.etherMAC[4] 	rxPkOk:count 	1
attr interpolationmode  none
attr source  rxPkOk
attr title  "packets received OK, count"
scalar Topo.s1.etherMAC[4] 	rxPkOk:sum(packetBytes) 	64
attr interpolationmode  none
attr source  rxPkOk
attr title  "packets received OK, sum(packetBytes)"
scalar Topo.s1.etherMAC[4] 	txPk:count 	355
attr interpolationmode  none
attr source  txPk
attr title  "packets transmitted, count"
scalar Topo.s1.etherMAC[4] 	txPk:sum(packetBytes) 	455152
attr interpolationmode  none
attr source  txPk
attr title  "packets transmitted, sum(packetBytes)"
scalar Topo.s1.etherMAC[4] 	backoff:count 	0
attr interpolationmode  none
attr title  "backoff, count"
scalar Topo.s1.etherMAC[4] 	collision:count 	0
attr interpolationmode  none
attr title  "collision, count"
scalar Topo.s1.etherMAC[4] 	passedUpPk:count 	1
attr interpolationmode  none
attr source  packetSentToUpper
attr title  "packets passed to higher layer, count"
scalar Topo.s1.etherMAC[4] 	passedUpPk:sum(packetBytes) 	64
attr interpolationmode  none
attr source  packetSentToUpper
attr title  "packets passed to higher layer, sum(packetBytes)"
scalar Topo.s1.etherMAC[5] 	"simulated time" 	35.200098279973
scalar Topo.s1.etherMAC[5] 	full-duplex 	1
scalar Topo.s1.etherMAC[5] 	"frames/sec sent" 	3.3238543560137
scalar Topo.s1.etherMAC[5] 	"frames/sec rcvd" 	0.056818023179722
scalar Topo.s1.etherMAC[5] 	"bits/sec sent" 	33341.725090232
scalar Topo.s1.etherMAC[5] 	"bits/sec rcvd" 	29.090827868018
scalar Topo.s1.etherMAC[5] 	"rx channel idle (%)" 	99.999967272819
scalar Topo.s1.etherMAC[5] 	"rx channel utilization (%)" 	3.272718135152e-05
scalar Topo.s1.etherMAC[5] 	"rx channel collision (%)" 	0
scalar Topo.s1.etherMAC[5] 	collisions 	0
scalar Topo.s1.etherMAC[5] 	backoffs 	0
scalar Topo.s1.etherMAC[5] 	droppedPkNotForUs:count 	0
attr interpolationmode  none
attr source  dropPkNotForUs
attr title  "packets dropped/not for us, count"
scalar Topo.s1.etherMAC[5] 	droppedPkNotForUs:sum(packetBytes) 	0
attr interpolationmode  none
attr source  dropPkNotForUs
attr title  "packets dropped/not for us, sum(packetBytes)"
scalar Topo.s1.etherMAC[5] 	droppedPkIfaceDown:count 	0
attr interpolationmode  none
attr source  dropPkIfaceDown
attr title  "packets dropped/interface down, count"
scalar Topo.s1.etherMAC[5] 	droppedPkIfaceDown:sum(packetBytes) 	0
attr interpolationmode  none
attr source  dropPkIfaceDown
attr title  "packets dropped/interface down, sum(packetBytes)"
scalar Topo.s1.etherMAC[5] 	droppedPkBitError:count 	0
attr interpolationmode  none
attr source  dropPkBitError
attr title  "packets dropped/bit error, count"
scalar Topo.s1.etherMAC[5] 	droppedPkBitError:sum(packetBytes) 	0
attr interpolationmode  none
attr source  dropPkBitError
attr title  "packets dropped/bit error, sum(packetBytes)"
scalar Topo.s1.etherMAC[5] 	rxPkFromHL:count 	117
attr interpolationmode  none
attr source  rxPkFromHL
attr title  "packet bytes from higher layer, count"
scalar Topo.s1.etherMAC[5] 	rxPkFromHL:sum(packetBytes) 	146704
attr interpolationmode  none
attr source  rxPkFromHL
attr title  "packet bytes from higher layer, sum(packetBytes)"
scalar Topo.s1.etherMAC[5] 	rxPausePkUnits:count 	0
attr interpolationmode  none
attr title  "pause units received, count"
scalar Topo.s1.etherMAC[5] 	rxPausePkUnits:sum 	0
attr interpolationmode  none
attr title  "pause units received, sum"
scalar Topo.s1.etherMAC[5] 	txPausePkUnits:count 	0
attr interpolationmode  none
attr title  "pause units sent, count"
scalar Topo.s1.etherMAC[5] 	txPausePkUnits:sum 	0
attr interpolationmode  none
attr title  "pause units sent, sum"
scalar Topo.s1.etherMAC[5] 	rxPkOk:count 	2
attr interpolationmode  none
attr source  rxPkOk
attr title  "packets received OK, count"
scalar Topo.s1.etherMAC[5] 	rxPkOk:sum(packetBytes) 	128
attr interpolationmode  none
attr source  rxPkOk
attr title  "packets received OK, sum(packetBytes)"
scalar Topo.s1.etherMAC[5] 	txPk:count 	117
attr interpolationmode  none
attr source  txPk
attr title  "packets transmitted, count"
scalar Topo.s1.etherMAC[5] 	txPk:sum(packetBytes) 	146704
attr interpolationmode  none
attr source  txPk
attr title  "packets transmitted, sum(packetBytes)"
scalar Topo.s1.etherMAC[5] 	backoff:count 	0
attr interpolationmode  none
attr title  "backoff, count"
scalar Topo.s1.etherMAC[5] 	collision:count 	0
attr interpolationmode  none
attr title  "collision, count"
scalar Topo.s1.etherMAC[5] 	passedUpPk:count 	2
attr interpolationmode  none
attr source  packetSentToUpper
attr title  "packets passed to higher layer, count"
scalar Topo.s1.etherMAC[5] 	passedUpPk:sum(packetBytes) 	128
attr interpolationmode  none
attr source  packetSentToUpper
attr title  "packets passed to higher layer, sum(packetBytes)"
scalar Topo.s1.etherMAC[6] 	"simulated time" 	35.200098279973
scalar Topo.s1.etherMAC[6] 	full-duplex 	1
scalar Topo.s1.etherMAC[6] 	"frames/sec sent" 	5.0852130745851
scalar Topo.s1.etherMAC[6] 	"frames/sec rcvd" 	0.028409011589861
scalar Topo.s1.etherMAC[6] 	"bits/sec sent" 	51603.49228438
scalar Topo.s1.etherMAC[6] 	"bits/sec rcvd" 	14.545413934009
scalar Topo.s1.etherMAC[6] 	"rx channel idle (%)" 	99.999983636409
scalar Topo.s1.etherMAC[6] 	"rx channel utilization (%)" 	1.636359067576e-05
scalar Topo.s1.etherMAC[6] 	"rx channel collision (%)" 	0
scalar Topo.s1.etherMAC[6] 	collisions 	0
scalar Topo.s1.etherMAC[6] 	backoffs 	0
scalar Topo.s1.etherMAC[6] 	droppedPkNotForUs:count 	0
attr interpolationmode  none
attr source  dropPkNotForUs
attr title  "packets dropped/not for us, count"
scalar Topo.s1.etherMAC[6] 	droppedPkNotForUs:sum(packetBytes) 	0
attr interpolationmode  none
attr source  dropPkNotForUs
attr title  "packets dropped/not for us, sum(packetBytes)"
scalar Topo.s1.etherMAC[6] 	droppedPkIfaceDown:count 	0
attr interpolationmode  none
attr source  dropPkIfaceDown
attr title  "packets dropped/interface down, count"
scalar Topo.s1.etherMAC[6] 	droppedPkIfaceDown:sum(packetBytes) 	0
attr interpolationmode  none
attr source  dropPkIfaceDown
attr title  "packets dropped/interface down, sum(packetBytes)"
scalar Topo.s1.etherMAC[6] 	droppedPkBitError:count 	0
attr interpolationmode  none
attr source  dropPkBitError
attr title  "packets dropped/bit error, count"
scalar Topo.s1.etherMAC[6] 	droppedPkBitError:sum(packetBytes) 	0
attr interpolationmode  none
attr source  dropPkBitError
attr title  "packets dropped/bit error, sum(packetBytes)"
scalar Topo.s1.etherMAC[6] 	rxPkFromHL:count 	179
attr interpolationmode  none
attr source  rxPkFromHL
attr title  "packet bytes from higher layer, count"
scalar Topo.s1.etherMAC[6] 	rxPkFromHL:sum(packetBytes) 	227056
attr interpolationmode  none
attr source  rxPkFromHL
attr title  "packet bytes from higher layer, sum(packetBytes)"
scalar Topo.s1.etherMAC[6] 	rxPausePkUnits:count 	0
attr interpolationmode  none
attr title  "pause units received, count"
scalar Topo.s1.etherMAC[6] 	rxPausePkUnits:sum 	0
attr interpolationmode  none
attr title  "pause units received, sum"
scalar Topo.s1.etherMAC[6] 	txPausePkUnits:count 	0
attr interpolationmode  none
attr title  "pause units sent, count"
scalar Topo.s1.etherMAC[6] 	txPausePkUnits:sum 	0
attr interpolationmode  none
attr title  "pause units sent, sum"
scalar Topo.s1.etherMAC[6] 	rxPkOk:count 	1
attr interpolationmode  none
attr source  rxPkOk
attr title  "packets received OK, count"
scalar Topo.s1.etherMAC[6] 	rxPkOk:sum(packetBytes) 	64
attr interpolationmode  none
attr source  rxPkOk
attr title  "packets received OK, sum(packetBytes)"
scalar Topo.s1.etherMAC[6] 	txPk:count 	179
attr interpolationmode  none
attr source  txPk
attr title  "packets transmitted, count"
scalar Topo.s1.etherMAC[6] 	txPk:sum(packetBytes) 	227056
attr interpolationmode  none
attr source  txPk
attr title  "packets transmitted, sum(packetBytes)"
scalar Topo.s1.etherMAC[6] 	backoff:count 	0
attr interpolationmode  none
attr title  "backoff, count"
scalar Topo.s1.etherMAC[6] 	collision:count 	0
attr interpolationmode  none
attr title  "collision, count"
scalar Topo.s1.etherMAC[6] 	passedUpPk:count 	1
attr interpolationmode  none
attr source  packetSentToUpper
attr title  "packets passed to higher layer, count"
scalar Topo.s1.etherMAC[6] 	passedUpPk:sum(packetBytes) 	64
attr interpolationmode  none
attr source  packetSentToUpper
attr title  "packets passed to higher layer, sum(packetBytes)"
scalar Topo.s1.open_Flow_Processing 	droppedPkt:last 	-nan
attr source  droppedPkt
scalar Topo.controller.networkLayer.arp 	failedARPResolution:count 	0
attr title  "ARP failed resolutions, count"
scalar Topo.controller.networkLayer.arp 	completedARPResolution:count 	1
attr title  "ARP completed resolutions, count"
scalar Topo.controller.networkLayer.arp 	initiatedARPResolution:count 	0
attr title  "ARP initiated resolutions, count"
scalar Topo.controller.networkLayer.arp 	sentReply:count 	1
attr title  "ARP replies sent, count"
scalar Topo.controller.networkLayer.arp 	sentReq:count 	0
attr title  "ARP request sent, count"
scalar Topo.controller.lo0.lo 	droppedPkBitError:count 	0
attr interpolationmode  none
attr source  dropPkBitError
attr title  "packets dropped/bit error, count"
scalar Topo.controller.lo0.lo 	droppedPkBitError:sum(packetBytes) 	0
attr interpolationmode  none
attr source  dropPkBitError
attr title  "packets dropped/bit error, sum(packetBytes)"
scalar Topo.controller.lo0.lo 	rcvdPkFromHL:count 	0
attr interpolationmode  none
attr source  packetReceivedFromUpper
attr title  "packets received from higher layer, count"
scalar Topo.controller.lo0.lo 	rcvdPkFromHL:sum(packetBytes) 	0
attr interpolationmode  none
attr source  packetReceivedFromUpper
attr title  "packets received from higher layer, sum(packetBytes)"
scalar Topo.controller.lo0.lo 	passedUpPk:count 	0
attr interpolationmode  none
attr source  packetSentToUpper
attr title  "packets passed to higher layer, count"
scalar Topo.controller.lo0.lo 	passedUpPk:sum(packetBytes) 	0
attr interpolationmode  none
attr source  packetSentToUpper
attr title  "packets passed to higher layer, sum(packetBytes)"
scalar Topo.controller.eth[0].mac 	"simulated time" 	35.200098279973
scalar Topo.controller.eth[0].mac 	full-duplex 	1
scalar Topo.controller.eth[0].mac 	"frames/sec sent" 	10.028381091221
scalar Topo.controller.eth[0].mac 	"frames/sec rcvd" 	10.085199114401
scalar Topo.controller.eth[0].mac 	"bits/sec sent" 	18614.038937862
scalar Topo.controller.eth[0].mac 	"bits/sec rcvd" 	18883.129095642
scalar Topo.controller.eth[0].mac 	"rx channel idle (%)" 	99.980471418161
scalar Topo.controller.eth[0].mac 	"rx channel utilization (%)" 	0.019528581838963
scalar Topo.controller.eth[0].mac 	droppedPkNotForUs:count 	0
attr interpolationmode  none
attr source  dropPkNotForUs
attr title  "packets dropped/not for us, count"
scalar Topo.controller.eth[0].mac 	droppedPkNotForUs:sum(packetBytes) 	0
attr interpolationmode  none
attr source  dropPkNotForUs
attr title  "packets dropped/not for us, sum(packetBytes)"
scalar Topo.controller.eth[0].mac 	droppedPkIfaceDown:count 	0
attr interpolationmode  none
attr source  dropPkIfaceDown
attr title  "packets dropped/interface down, count"
scalar Topo.controller.eth[0].mac 	droppedPkIfaceDown:sum(packetBytes) 	0
attr interpolationmode  none
attr source  dropPkIfaceDown
attr title  "packets dropped/interface down, sum(packetBytes)"
scalar Topo.controller.eth[0].mac 	droppedPkBitError:count 	0
attr interpolationmode  none
attr source  dropPkBitError
attr title  "packets dropped/bit error, count"
scalar Topo.controller.eth[0].mac 	droppedPkBitError:sum(packetBytes) 	0
attr interpolationmode  none
attr source  dropPkBitError
attr title  "packets dropped/bit error, sum(packetBytes)"
scalar Topo.controller.eth[0].mac 	rxPkFromHL:count 	353
attr interpolationmode  none
attr source  rxPkFromHL
attr title  "packet bytes from higher layer, count"
scalar Topo.controller.eth[0].mac 	rxPkFromHL:sum(packetBytes) 	81902
attr interpolationmode  none
attr source  rxPkFromHL
attr title  "packet bytes from higher layer, sum(packetBytes)"
scalar Topo.controller.eth[0].mac 	rxPausePkUnits:count 	0
attr interpolationmode  none
attr title  "pause units received, count"
scalar Topo.controller.eth[0].mac 	rxPausePkUnits:sum 	0
attr interpolationmode  none
attr title  "pause units received, sum"
scalar Topo.controller.eth[0].mac 	txPausePkUnits:count 	0
attr interpolationmode  none
attr title  "pause units sent, count"
scalar Topo.controller.eth[0].mac 	txPausePkUnits:sum 	0
attr interpolationmode  none
attr title  "pause units sent, sum"
scalar Topo.controller.eth[0].mac 	rxPkOk:count 	355
attr interpolationmode  none
attr source  rxPkOk
attr title  "packets received OK, count"
scalar Topo.controller.eth[0].mac 	rxPkOk:sum(packetBytes) 	83086
attr interpolationmode  none
attr source  rxPkOk
attr title  "packets received OK, sum(packetBytes)"
scalar Topo.controller.eth[0].mac 	txPk:count 	353
attr interpolationmode  none
attr source  txPk
attr title  "packets transmitted, count"
scalar Topo.controller.eth[0].mac 	txPk:sum(packetBytes) 	81902
attr interpolationmode  none
attr source  txPk
attr title  "packets transmitted, sum(packetBytes)"
scalar Topo.controller.eth[0].mac 	passedUpPk:count 	355
attr interpolationmode  none
attr source  packetSentToUpper
attr title  "packets passed to higher layer, count"
scalar Topo.controller.eth[0].mac 	passedUpPk:sum(packetBytes) 	83086
attr interpolationmode  none
attr source  packetSentToUpper
attr title  "packets passed to higher layer, sum(packetBytes)"
scalar Topo.controller.eth[0].encap 	pauseSent:count 	0
attr title  "pause sent, count"
scalar Topo.controller.eth[0].encap 	pauseSent:sum 	0
attr title  "pause sent, sum"
scalar Topo.controller.eth[0].encap 	decapPk:count 	355
attr interpolationmode  none
attr source  decapPk
attr title  "packets decapsulated, count"
scalar Topo.controller.eth[0].encap 	decapPk:sum(packetBytes) 	75456
attr interpolationmode  none
attr source  decapPk
attr title  "packets decapsulated, sum(packetBytes)"
scalar Topo.controller.eth[0].encap 	encapPk:count 	353
attr interpolationmode  none
attr source  encapPk
attr title  "packets encapsulated, count"
scalar Topo.controller.eth[0].encap 	encapPk:sum(packetBytes) 	74346
attr interpolationmode  none
attr source  encapPk
attr title  "packets encapsulated, sum(packetBytes)"
statistic Topo.controller.entropy 	entropy:stats
field count 1
field mean -46.133435998961
field stddev -nan
field sum -46.133435998961
field sqrsum 2128.2939170703
field min -46.133435998961
field max -46.133435998961
attr source  entropy
attr title  "Entropy Value, stats"
