version 2
run simple_attack-0-20161004-17:22:50-24206
attr configname simple_attack
attr datetime 20161004-17:22:50
attr experiment simple_attack
attr inifile omnetpp.ini
attr iterationvars ""
attr iterationvars2 $repetition=0
attr measurement ""
attr network Topo
attr processid 24206
attr repetition 0
attr replication #0
attr resultdir results
attr runnumber 0
attr seedset 0

scalar Topo.client1.networkLayer.arp 	failedARPResolution:count 	0
attr title  "ARP failed resolutions, count"
scalar Topo.client1.networkLayer.arp 	completedARPResolution:count 	1
attr title  "ARP completed resolutions, count"
scalar Topo.client1.networkLayer.arp 	initiatedARPResolution:count 	1
attr title  "ARP initiated resolutions, count"
scalar Topo.client1.networkLayer.arp 	sentReply:count 	0
attr title  "ARP replies sent, count"
scalar Topo.client1.networkLayer.arp 	sentReq:count 	1
attr title  "ARP request sent, count"
scalar Topo.client1.lo0.lo 	droppedPkBitError:count 	0
attr interpolationmode  none
attr source  dropPkBitError
attr title  "packets dropped/bit error, count"
scalar Topo.client1.lo0.lo 	droppedPkBitError:sum(packetBytes) 	0
attr interpolationmode  none
attr source  dropPkBitError
attr title  "packets dropped/bit error, sum(packetBytes)"
scalar Topo.client1.lo0.lo 	rcvdPkFromHL:count 	0
attr interpolationmode  none
attr source  packetReceivedFromUpper
attr title  "packets received from higher layer, count"
scalar Topo.client1.lo0.lo 	rcvdPkFromHL:sum(packetBytes) 	0
attr interpolationmode  none
attr source  packetReceivedFromUpper
attr title  "packets received from higher layer, sum(packetBytes)"
scalar Topo.client1.lo0.lo 	passedUpPk:count 	0
attr interpolationmode  none
attr source  packetSentToUpper
attr title  "packets passed to higher layer, count"
scalar Topo.client1.lo0.lo 	passedUpPk:sum(packetBytes) 	0
attr interpolationmode  none
attr source  packetSentToUpper
attr title  "packets passed to higher layer, sum(packetBytes)"
scalar Topo.client1.eth[0].mac 	"simulated time" 	94.990056719999
scalar Topo.client1.eth[0].mac 	full-duplex 	1
scalar Topo.client1.eth[0].mac 	"frames/sec sent" 	10.001046770614
scalar Topo.client1.eth[0].mac 	"frames/sec rcvd" 	0.042109670613112
scalar Topo.client1.eth[0].mac 	"bits/sec sent" 	103587.09468934
scalar Topo.client1.eth[0].mac 	"bits/sec rcvd" 	21.560151353913
scalar Topo.client1.eth[0].mac 	"rx channel idle (%)" 	99.99997574483
scalar Topo.client1.eth[0].mac 	"rx channel utilization (%)" 	2.4255170273153e-05
scalar Topo.client1.eth[0].mac 	droppedPkNotForUs:count 	0
attr interpolationmode  none
attr source  dropPkNotForUs
attr title  "packets dropped/not for us, count"
scalar Topo.client1.eth[0].mac 	droppedPkNotForUs:sum(packetBytes) 	0
attr interpolationmode  none
attr source  dropPkNotForUs
attr title  "packets dropped/not for us, sum(packetBytes)"
scalar Topo.client1.eth[0].mac 	droppedPkIfaceDown:count 	0
attr interpolationmode  none
attr source  dropPkIfaceDown
attr title  "packets dropped/interface down, count"
scalar Topo.client1.eth[0].mac 	droppedPkIfaceDown:sum(packetBytes) 	0
attr interpolationmode  none
attr source  dropPkIfaceDown
attr title  "packets dropped/interface down, sum(packetBytes)"
scalar Topo.client1.eth[0].mac 	droppedPkBitError:count 	0
attr interpolationmode  none
attr source  dropPkBitError
attr title  "packets dropped/bit error, count"
scalar Topo.client1.eth[0].mac 	droppedPkBitError:sum(packetBytes) 	0
attr interpolationmode  none
attr source  dropPkBitError
attr title  "packets dropped/bit error, sum(packetBytes)"
scalar Topo.client1.eth[0].mac 	rxPkFromHL:count 	950
attr interpolationmode  none
attr source  rxPkFromHL
attr title  "packet bytes from higher layer, count"
scalar Topo.client1.eth[0].mac 	rxPkFromHL:sum(packetBytes) 	1229968
attr interpolationmode  none
attr source  rxPkFromHL
attr title  "packet bytes from higher layer, sum(packetBytes)"
scalar Topo.client1.eth[0].mac 	rxPausePkUnits:count 	0
attr interpolationmode  none
attr title  "pause units received, count"
scalar Topo.client1.eth[0].mac 	rxPausePkUnits:sum 	0
attr interpolationmode  none
attr title  "pause units received, sum"
scalar Topo.client1.eth[0].mac 	txPausePkUnits:count 	0
attr interpolationmode  none
attr title  "pause units sent, count"
scalar Topo.client1.eth[0].mac 	txPausePkUnits:sum 	0
attr interpolationmode  none
attr title  "pause units sent, sum"
scalar Topo.client1.eth[0].mac 	rxPkOk:count 	4
attr interpolationmode  none
attr source  rxPkOk
attr title  "packets received OK, count"
scalar Topo.client1.eth[0].mac 	rxPkOk:sum(packetBytes) 	256
attr interpolationmode  none
attr source  rxPkOk
attr title  "packets received OK, sum(packetBytes)"
scalar Topo.client1.eth[0].mac 	txPk:count 	950
attr interpolationmode  none
attr source  txPk
attr title  "packets transmitted, count"
scalar Topo.client1.eth[0].mac 	txPk:sum(packetBytes) 	1229968
attr interpolationmode  none
attr source  txPk
attr title  "packets transmitted, sum(packetBytes)"
scalar Topo.client1.eth[0].mac 	passedUpPk:count 	4
attr interpolationmode  none
attr source  packetSentToUpper
attr title  "packets passed to higher layer, count"
scalar Topo.client1.eth[0].mac 	passedUpPk:sum(packetBytes) 	256
attr interpolationmode  none
attr source  packetSentToUpper
attr title  "packets passed to higher layer, sum(packetBytes)"
scalar Topo.client1.eth[0].encap 	pauseSent:count 	0
attr title  "pause sent, count"
scalar Topo.client1.eth[0].encap 	pauseSent:sum 	0
attr title  "pause sent, sum"
scalar Topo.client1.eth[0].encap 	decapPk:count 	4
attr interpolationmode  none
attr source  decapPk
attr title  "packets decapsulated, count"
scalar Topo.client1.eth[0].encap 	decapPk:sum(packetBytes) 	112
attr interpolationmode  none
attr source  decapPk
attr title  "packets decapsulated, sum(packetBytes)"
scalar Topo.client1.eth[0].encap 	encapPk:count 	950
attr interpolationmode  none
attr source  encapPk
attr title  "packets encapsulated, count"
scalar Topo.client1.eth[0].encap 	encapPk:sum(packetBytes) 	1212850
attr interpolationmode  none
attr source  encapPk
attr title  "packets encapsulated, sum(packetBytes)"
scalar Topo.client1.udpApp[0] 	"packets sent" 	949
scalar Topo.client1.udpApp[0] 	"packets received" 	0
scalar Topo.client1.udpApp[0] 	rcvdPk:count 	0
attr interpolationmode  none
attr source  rcvdPk
attr title  "packets received, count"
scalar Topo.client1.udpApp[0] 	rcvdPk:sum(packetBytes) 	0
attr interpolationmode  none
attr source  rcvdPk
attr title  "packets received, sum(packetBytes)"
statistic Topo.client1.udpApp[0] 	rcvdPkLifetime:stats
field count 0
field mean -nan
field stddev -nan
field sum 0
field sqrsum 0
field min -nan
field max -nan
attr interpolationmode  none
attr source  messageAge(rcvdPk)
attr title  "received packet lifetime, stats"
attr unit  s
scalar Topo.client1.udpApp[0] 	sentPk:count 	949
attr interpolationmode  none
attr source  sentPk
attr title  "packets sent, count"
scalar Topo.client1.udpApp[0] 	sentPk:sum(packetBytes) 	1186250
attr interpolationmode  none
attr source  sentPk
attr title  "packets sent, sum(packetBytes)"
scalar Topo.client1.udp 	droppedPkBadChecksum:count 	0
attr interpolationmode  none
attr title  "packets dropped (checksum error), count"
scalar Topo.client1.udp 	droppedPkWrongPort:count 	0
attr interpolationmode  none
attr title  "packets dropped (wrong port), count"
scalar Topo.client1.udp 	passedUpPk:count 	0
attr interpolationmode  none
attr title  "packets passed up, count"
scalar Topo.client1.udp 	rcvdPk:count 	0
attr interpolationmode  none
attr source  rcvdPk
attr title  "packets received, count"
scalar Topo.client1.udp 	rcvdPk:sum(packetBytes) 	0
attr interpolationmode  none
attr source  rcvdPk
attr title  "packets received, sum(packetBytes)"
scalar Topo.client1.udp 	sentPk:count 	949
attr interpolationmode  none
attr source  sentPk
attr title  "packets sent, count"
scalar Topo.client1.udp 	sentPk:sum(packetBytes) 	1193842
attr interpolationmode  none
attr source  sentPk
attr title  "packets sent, sum(packetBytes)"
scalar Topo.client2.networkLayer.arp 	failedARPResolution:count 	0
attr title  "ARP failed resolutions, count"
scalar Topo.client2.networkLayer.arp 	completedARPResolution:count 	1
attr title  "ARP completed resolutions, count"
scalar Topo.client2.networkLayer.arp 	initiatedARPResolution:count 	1
attr title  "ARP initiated resolutions, count"
scalar Topo.client2.networkLayer.arp 	sentReply:count 	0
attr title  "ARP replies sent, count"
scalar Topo.client2.networkLayer.arp 	sentReq:count 	1
attr title  "ARP request sent, count"
scalar Topo.client2.lo0.lo 	droppedPkBitError:count 	0
attr interpolationmode  none
attr source  dropPkBitError
attr title  "packets dropped/bit error, count"
scalar Topo.client2.lo0.lo 	droppedPkBitError:sum(packetBytes) 	0
attr interpolationmode  none
attr source  dropPkBitError
attr title  "packets dropped/bit error, sum(packetBytes)"
scalar Topo.client2.lo0.lo 	rcvdPkFromHL:count 	0
attr interpolationmode  none
attr source  packetReceivedFromUpper
attr title  "packets received from higher layer, count"
scalar Topo.client2.lo0.lo 	rcvdPkFromHL:sum(packetBytes) 	0
attr interpolationmode  none
attr source  packetReceivedFromUpper
attr title  "packets received from higher layer, sum(packetBytes)"
scalar Topo.client2.lo0.lo 	passedUpPk:count 	0
attr interpolationmode  none
attr source  packetSentToUpper
attr title  "packets passed to higher layer, count"
scalar Topo.client2.lo0.lo 	passedUpPk:sum(packetBytes) 	0
attr interpolationmode  none
attr source  packetSentToUpper
attr title  "packets passed to higher layer, sum(packetBytes)"
scalar Topo.client2.eth[0].mac 	"simulated time" 	94.990056719999
scalar Topo.client2.eth[0].mac 	full-duplex 	1
scalar Topo.client2.eth[0].mac 	"frames/sec sent" 	1.6738594068712
scalar Topo.client2.eth[0].mac 	"frames/sec rcvd" 	0.042109670613112
scalar Topo.client2.eth[0].mac 	"bits/sec sent" 	17250.81610205
scalar Topo.client2.eth[0].mac 	"bits/sec rcvd" 	21.560151353913
scalar Topo.client2.eth[0].mac 	"rx channel idle (%)" 	99.99997574483
scalar Topo.client2.eth[0].mac 	"rx channel utilization (%)" 	2.4255170273153e-05
scalar Topo.client2.eth[0].mac 	droppedPkNotForUs:count 	0
attr interpolationmode  none
attr source  dropPkNotForUs
attr title  "packets dropped/not for us, count"
scalar Topo.client2.eth[0].mac 	droppedPkNotForUs:sum(packetBytes) 	0
attr interpolationmode  none
attr source  dropPkNotForUs
attr title  "packets dropped/not for us, sum(packetBytes)"
scalar Topo.client2.eth[0].mac 	droppedPkIfaceDown:count 	0
attr interpolationmode  none
attr source  dropPkIfaceDown
attr title  "packets dropped/interface down, count"
scalar Topo.client2.eth[0].mac 	droppedPkIfaceDown:sum(packetBytes) 	0
attr interpolationmode  none
attr source  dropPkIfaceDown
attr title  "packets dropped/interface down, sum(packetBytes)"
scalar Topo.client2.eth[0].mac 	droppedPkBitError:count 	0
attr interpolationmode  none
attr source  dropPkBitError
attr title  "packets dropped/bit error, count"
scalar Topo.client2.eth[0].mac 	droppedPkBitError:sum(packetBytes) 	0
attr interpolationmode  none
attr source  dropPkBitError
attr title  "packets dropped/bit error, sum(packetBytes)"
scalar Topo.client2.eth[0].mac 	rxPkFromHL:count 	159
attr interpolationmode  none
attr source  rxPkFromHL
attr title  "packet bytes from higher layer, count"
scalar Topo.client2.eth[0].mac 	rxPkFromHL:sum(packetBytes) 	204832
attr interpolationmode  none
attr source  rxPkFromHL
attr title  "packet bytes from higher layer, sum(packetBytes)"
scalar Topo.client2.eth[0].mac 	rxPausePkUnits:count 	0
attr interpolationmode  none
attr title  "pause units received, count"
scalar Topo.client2.eth[0].mac 	rxPausePkUnits:sum 	0
attr interpolationmode  none
attr title  "pause units received, sum"
scalar Topo.client2.eth[0].mac 	txPausePkUnits:count 	0
attr interpolationmode  none
attr title  "pause units sent, count"
scalar Topo.client2.eth[0].mac 	txPausePkUnits:sum 	0
attr interpolationmode  none
attr title  "pause units sent, sum"
scalar Topo.client2.eth[0].mac 	rxPkOk:count 	4
attr interpolationmode  none
attr source  rxPkOk
attr title  "packets received OK, count"
scalar Topo.client2.eth[0].mac 	rxPkOk:sum(packetBytes) 	256
attr interpolationmode  none
attr source  rxPkOk
attr title  "packets received OK, sum(packetBytes)"
scalar Topo.client2.eth[0].mac 	txPk:count 	159
attr interpolationmode  none
attr source  txPk
attr title  "packets transmitted, count"
scalar Topo.client2.eth[0].mac 	txPk:sum(packetBytes) 	204832
attr interpolationmode  none
attr source  txPk
attr title  "packets transmitted, sum(packetBytes)"
scalar Topo.client2.eth[0].mac 	passedUpPk:count 	4
attr interpolationmode  none
attr source  packetSentToUpper
attr title  "packets passed to higher layer, count"
scalar Topo.client2.eth[0].mac 	passedUpPk:sum(packetBytes) 	256
attr interpolationmode  none
attr source  packetSentToUpper
attr title  "packets passed to higher layer, sum(packetBytes)"
scalar Topo.client2.eth[0].encap 	pauseSent:count 	0
attr title  "pause sent, count"
scalar Topo.client2.eth[0].encap 	pauseSent:sum 	0
attr title  "pause sent, sum"
scalar Topo.client2.eth[0].encap 	decapPk:count 	4
attr interpolationmode  none
attr source  decapPk
attr title  "packets decapsulated, count"
scalar Topo.client2.eth[0].encap 	decapPk:sum(packetBytes) 	112
attr interpolationmode  none
attr source  decapPk
attr title  "packets decapsulated, sum(packetBytes)"
scalar Topo.client2.eth[0].encap 	encapPk:count 	159
attr interpolationmode  none
attr source  encapPk
attr title  "packets encapsulated, count"
scalar Topo.client2.eth[0].encap 	encapPk:sum(packetBytes) 	201952
attr interpolationmode  none
attr source  encapPk
attr title  "packets encapsulated, sum(packetBytes)"
scalar Topo.client2.udpApp[0] 	"packets sent" 	158
scalar Topo.client2.udpApp[0] 	"packets received" 	0
scalar Topo.client2.udpApp[0] 	rcvdPk:count 	0
attr interpolationmode  none
attr source  rcvdPk
attr title  "packets received, count"
scalar Topo.client2.udpApp[0] 	rcvdPk:sum(packetBytes) 	0
attr interpolationmode  none
attr source  rcvdPk
attr title  "packets received, sum(packetBytes)"
statistic Topo.client2.udpApp[0] 	rcvdPkLifetime:stats
field count 0
field mean -nan
field stddev -nan
field sum 0
field sqrsum 0
field min -nan
field max -nan
attr interpolationmode  none
attr source  messageAge(rcvdPk)
attr title  "received packet lifetime, stats"
attr unit  s
scalar Topo.client2.udpApp[0] 	sentPk:count 	158
attr interpolationmode  none
attr source  sentPk
attr title  "packets sent, count"
scalar Topo.client2.udpApp[0] 	sentPk:sum(packetBytes) 	197500
attr interpolationmode  none
attr source  sentPk
attr title  "packets sent, sum(packetBytes)"
scalar Topo.client2.udp 	droppedPkBadChecksum:count 	0
attr interpolationmode  none
attr title  "packets dropped (checksum error), count"
scalar Topo.client2.udp 	droppedPkWrongPort:count 	0
attr interpolationmode  none
attr title  "packets dropped (wrong port), count"
scalar Topo.client2.udp 	passedUpPk:count 	0
attr interpolationmode  none
attr title  "packets passed up, count"
scalar Topo.client2.udp 	rcvdPk:count 	0
attr interpolationmode  none
attr source  rcvdPk
attr title  "packets received, count"
scalar Topo.client2.udp 	rcvdPk:sum(packetBytes) 	0
attr interpolationmode  none
attr source  rcvdPk
attr title  "packets received, sum(packetBytes)"
scalar Topo.client2.udp 	sentPk:count 	158
attr interpolationmode  none
attr source  sentPk
attr title  "packets sent, count"
scalar Topo.client2.udp 	sentPk:sum(packetBytes) 	198764
attr interpolationmode  none
attr source  sentPk
attr title  "packets sent, sum(packetBytes)"
scalar Topo.client3.networkLayer.arp 	failedARPResolution:count 	0
attr title  "ARP failed resolutions, count"
scalar Topo.client3.networkLayer.arp 	completedARPResolution:count 	1
attr title  "ARP completed resolutions, count"
scalar Topo.client3.networkLayer.arp 	initiatedARPResolution:count 	1
attr title  "ARP initiated resolutions, count"
scalar Topo.client3.networkLayer.arp 	sentReply:count 	0
attr title  "ARP replies sent, count"
scalar Topo.client3.networkLayer.arp 	sentReq:count 	1
attr title  "ARP request sent, count"
scalar Topo.client3.lo0.lo 	droppedPkBitError:count 	0
attr interpolationmode  none
attr source  dropPkBitError
attr title  "packets dropped/bit error, count"
scalar Topo.client3.lo0.lo 	droppedPkBitError:sum(packetBytes) 	0
attr interpolationmode  none
attr source  dropPkBitError
attr title  "packets dropped/bit error, sum(packetBytes)"
scalar Topo.client3.lo0.lo 	rcvdPkFromHL:count 	0
attr interpolationmode  none
attr source  packetReceivedFromUpper
attr title  "packets received from higher layer, count"
scalar Topo.client3.lo0.lo 	rcvdPkFromHL:sum(packetBytes) 	0
attr interpolationmode  none
attr source  packetReceivedFromUpper
attr title  "packets received from higher layer, sum(packetBytes)"
scalar Topo.client3.lo0.lo 	passedUpPk:count 	0
attr interpolationmode  none
attr source  packetSentToUpper
attr title  "packets passed to higher layer, count"
scalar Topo.client3.lo0.lo 	passedUpPk:sum(packetBytes) 	0
attr interpolationmode  none
attr source  packetSentToUpper
attr title  "packets passed to higher layer, sum(packetBytes)"
scalar Topo.client3.eth[0].mac 	"simulated time" 	94.990056719999
scalar Topo.client3.eth[0].mac 	full-duplex 	1
scalar Topo.client3.eth[0].mac 	"frames/sec sent" 	8.6009002227282
scalar Topo.client3.eth[0].mac 	"frames/sec rcvd" 	0.042109670613112
scalar Topo.client3.eth[0].mac 	"bits/sec sent" 	37191.261085501
scalar Topo.client3.eth[0].mac 	"bits/sec rcvd" 	21.560151353913
scalar Topo.client3.eth[0].mac 	"rx channel idle (%)" 	99.99997574483
scalar Topo.client3.eth[0].mac 	"rx channel utilization (%)" 	2.4255170273153e-05
scalar Topo.client3.eth[0].mac 	droppedPkNotForUs:count 	0
attr interpolationmode  none
attr source  dropPkNotForUs
attr title  "packets dropped/not for us, count"
scalar Topo.client3.eth[0].mac 	droppedPkNotForUs:sum(packetBytes) 	0
attr interpolationmode  none
attr source  dropPkNotForUs
attr title  "packets dropped/not for us, sum(packetBytes)"
scalar Topo.client3.eth[0].mac 	droppedPkIfaceDown:count 	0
attr interpolationmode  none
attr source  dropPkIfaceDown
attr title  "packets dropped/interface down, count"
scalar Topo.client3.eth[0].mac 	droppedPkIfaceDown:sum(packetBytes) 	0
attr interpolationmode  none
attr source  dropPkIfaceDown
attr title  "packets dropped/interface down, sum(packetBytes)"
scalar Topo.client3.eth[0].mac 	droppedPkBitError:count 	0
attr interpolationmode  none
attr source  dropPkBitError
attr title  "packets dropped/bit error, count"
scalar Topo.client3.eth[0].mac 	droppedPkBitError:sum(packetBytes) 	0
attr interpolationmode  none
attr source  dropPkBitError
attr title  "packets dropped/bit error, sum(packetBytes)"
scalar Topo.client3.eth[0].mac 	rxPkFromHL:count 	817
attr interpolationmode  none
attr source  rxPkFromHL
attr title  "packet bytes from higher layer, count"
scalar Topo.client3.eth[0].mac 	rxPkFromHL:sum(packetBytes) 	441600
attr interpolationmode  none
attr source  rxPkFromHL
attr title  "packet bytes from higher layer, sum(packetBytes)"
scalar Topo.client3.eth[0].mac 	rxPausePkUnits:count 	0
attr interpolationmode  none
attr title  "pause units received, count"
scalar Topo.client3.eth[0].mac 	rxPausePkUnits:sum 	0
attr interpolationmode  none
attr title  "pause units received, sum"
scalar Topo.client3.eth[0].mac 	txPausePkUnits:count 	0
attr interpolationmode  none
attr title  "pause units sent, count"
scalar Topo.client3.eth[0].mac 	txPausePkUnits:sum 	0
attr interpolationmode  none
attr title  "pause units sent, sum"
scalar Topo.client3.eth[0].mac 	rxPkOk:count 	4
attr interpolationmode  none
attr source  rxPkOk
attr title  "packets received OK, count"
scalar Topo.client3.eth[0].mac 	rxPkOk:sum(packetBytes) 	256
attr interpolationmode  none
attr source  rxPkOk
attr title  "packets received OK, sum(packetBytes)"
scalar Topo.client3.eth[0].mac 	txPk:count 	817
attr interpolationmode  none
attr source  txPk
attr title  "packets transmitted, count"
scalar Topo.client3.eth[0].mac 	txPk:sum(packetBytes) 	441600
attr interpolationmode  none
attr source  txPk
attr title  "packets transmitted, sum(packetBytes)"
scalar Topo.client3.eth[0].mac 	passedUpPk:count 	4
attr interpolationmode  none
attr source  packetSentToUpper
attr title  "packets passed to higher layer, count"
scalar Topo.client3.eth[0].mac 	passedUpPk:sum(packetBytes) 	256
attr interpolationmode  none
attr source  packetSentToUpper
attr title  "packets passed to higher layer, sum(packetBytes)"
scalar Topo.client3.eth[0].encap 	pauseSent:count 	0
attr title  "pause sent, count"
scalar Topo.client3.eth[0].encap 	pauseSent:sum 	0
attr title  "pause sent, sum"
scalar Topo.client3.eth[0].encap 	decapPk:count 	4
attr interpolationmode  none
attr source  decapPk
attr title  "packets decapsulated, count"
scalar Topo.client3.eth[0].encap 	decapPk:sum(packetBytes) 	112
attr interpolationmode  none
attr source  decapPk
attr title  "packets decapsulated, sum(packetBytes)"
scalar Topo.client3.eth[0].encap 	encapPk:count 	817
attr interpolationmode  none
attr source  encapPk
attr title  "packets encapsulated, count"
scalar Topo.client3.eth[0].encap 	encapPk:sum(packetBytes) 	417876
attr interpolationmode  none
attr source  encapPk
attr title  "packets encapsulated, sum(packetBytes)"
scalar Topo.client3.udpApp[0] 	"packets sent" 	316
scalar Topo.client3.udpApp[0] 	"packets received" 	0
scalar Topo.client3.udpApp[0] 	rcvdPk:count 	0
attr interpolationmode  none
attr source  rcvdPk
attr title  "packets received, count"
scalar Topo.client3.udpApp[0] 	rcvdPk:sum(packetBytes) 	0
attr interpolationmode  none
attr source  rcvdPk
attr title  "packets received, sum(packetBytes)"
statistic Topo.client3.udpApp[0] 	rcvdPkLifetime:stats
field count 0
field mean -nan
field stddev -nan
field sum 0
field sqrsum 0
field min -nan
field max -nan
attr interpolationmode  none
attr source  messageAge(rcvdPk)
attr title  "received packet lifetime, stats"
attr unit  s
scalar Topo.client3.udpApp[0] 	sentPk:count 	316
attr interpolationmode  none
attr source  sentPk
attr title  "packets sent, count"
scalar Topo.client3.udpApp[0] 	sentPk:sum(packetBytes) 	395000
attr interpolationmode  none
attr source  sentPk
attr title  "packets sent, sum(packetBytes)"
scalar Topo.client3.udp 	droppedPkBadChecksum:count 	0
attr interpolationmode  none
attr title  "packets dropped (checksum error), count"
scalar Topo.client3.udp 	droppedPkWrongPort:count 	0
attr interpolationmode  none
attr title  "packets dropped (wrong port), count"
scalar Topo.client3.udp 	passedUpPk:count 	0
attr interpolationmode  none
attr title  "packets passed up, count"
scalar Topo.client3.udp 	rcvdPk:count 	0
attr interpolationmode  none
attr source  rcvdPk
attr title  "packets received, count"
scalar Topo.client3.udp 	rcvdPk:sum(packetBytes) 	0
attr interpolationmode  none
attr source  rcvdPk
attr title  "packets received, sum(packetBytes)"
scalar Topo.client3.udp 	sentPk:count 	816
attr interpolationmode  none
attr source  sentPk
attr title  "packets sent, count"
scalar Topo.client3.udp 	sentPk:sum(packetBytes) 	401528
attr interpolationmode  none
attr source  sentPk
attr title  "packets sent, sum(packetBytes)"
scalar Topo.client4.networkLayer.arp 	failedARPResolution:count 	0
attr title  "ARP failed resolutions, count"
scalar Topo.client4.networkLayer.arp 	completedARPResolution:count 	1
attr title  "ARP completed resolutions, count"
scalar Topo.client4.networkLayer.arp 	initiatedARPResolution:count 	1
attr title  "ARP initiated resolutions, count"
scalar Topo.client4.networkLayer.arp 	sentReply:count 	0
attr title  "ARP replies sent, count"
scalar Topo.client4.networkLayer.arp 	sentReq:count 	1
attr title  "ARP request sent, count"
scalar Topo.client4.lo0.lo 	droppedPkBitError:count 	0
attr interpolationmode  none
attr source  dropPkBitError
attr title  "packets dropped/bit error, count"
scalar Topo.client4.lo0.lo 	droppedPkBitError:sum(packetBytes) 	0
attr interpolationmode  none
attr source  dropPkBitError
attr title  "packets dropped/bit error, sum(packetBytes)"
scalar Topo.client4.lo0.lo 	rcvdPkFromHL:count 	0
attr interpolationmode  none
attr source  packetReceivedFromUpper
attr title  "packets received from higher layer, count"
scalar Topo.client4.lo0.lo 	rcvdPkFromHL:sum(packetBytes) 	0
attr interpolationmode  none
attr source  packetReceivedFromUpper
attr title  "packets received from higher layer, sum(packetBytes)"
scalar Topo.client4.lo0.lo 	passedUpPk:count 	0
attr interpolationmode  none
attr source  packetSentToUpper
attr title  "packets passed to higher layer, count"
scalar Topo.client4.lo0.lo 	passedUpPk:sum(packetBytes) 	0
attr interpolationmode  none
attr source  packetSentToUpper
attr title  "packets passed to higher layer, sum(packetBytes)"
scalar Topo.client4.eth[0].mac 	"simulated time" 	94.990056719999
scalar Topo.client4.eth[0].mac 	full-duplex 	1
scalar Topo.client4.eth[0].mac 	"frames/sec sent" 	5.0005233853071
scalar Topo.client4.eth[0].mac 	"frames/sec rcvd" 	0.042109670613112
scalar Topo.client4.eth[0].mac 	"bits/sec sent" 	51741.668230473
scalar Topo.client4.eth[0].mac 	"bits/sec rcvd" 	21.560151353913
scalar Topo.client4.eth[0].mac 	"rx channel idle (%)" 	99.99997574483
scalar Topo.client4.eth[0].mac 	"rx channel utilization (%)" 	2.4255170273153e-05
scalar Topo.client4.eth[0].mac 	droppedPkNotForUs:count 	0
attr interpolationmode  none
attr source  dropPkNotForUs
attr title  "packets dropped/not for us, count"
scalar Topo.client4.eth[0].mac 	droppedPkNotForUs:sum(packetBytes) 	0
attr interpolationmode  none
attr source  dropPkNotForUs
attr title  "packets dropped/not for us, sum(packetBytes)"
scalar Topo.client4.eth[0].mac 	droppedPkIfaceDown:count 	0
attr interpolationmode  none
attr source  dropPkIfaceDown
attr title  "packets dropped/interface down, count"
scalar Topo.client4.eth[0].mac 	droppedPkIfaceDown:sum(packetBytes) 	0
attr interpolationmode  none
attr source  dropPkIfaceDown
attr title  "packets dropped/interface down, sum(packetBytes)"
scalar Topo.client4.eth[0].mac 	droppedPkBitError:count 	0
attr interpolationmode  none
attr source  dropPkBitError
attr title  "packets dropped/bit error, count"
scalar Topo.client4.eth[0].mac 	droppedPkBitError:sum(packetBytes) 	0
attr interpolationmode  none
attr source  dropPkBitError
attr title  "packets dropped/bit error, sum(packetBytes)"
scalar Topo.client4.eth[0].mac 	rxPkFromHL:count 	475
attr interpolationmode  none
attr source  rxPkFromHL
attr title  "packet bytes from higher layer, count"
scalar Topo.client4.eth[0].mac 	rxPkFromHL:sum(packetBytes) 	614368
attr interpolationmode  none
attr source  rxPkFromHL
attr title  "packet bytes from higher layer, sum(packetBytes)"
scalar Topo.client4.eth[0].mac 	rxPausePkUnits:count 	0
attr interpolationmode  none
attr title  "pause units received, count"
scalar Topo.client4.eth[0].mac 	rxPausePkUnits:sum 	0
attr interpolationmode  none
attr title  "pause units received, sum"
scalar Topo.client4.eth[0].mac 	txPausePkUnits:count 	0
attr interpolationmode  none
attr title  "pause units sent, count"
scalar Topo.client4.eth[0].mac 	txPausePkUnits:sum 	0
attr interpolationmode  none
attr title  "pause units sent, sum"
scalar Topo.client4.eth[0].mac 	rxPkOk:count 	4
attr interpolationmode  none
attr source  rxPkOk
attr title  "packets received OK, count"
scalar Topo.client4.eth[0].mac 	rxPkOk:sum(packetBytes) 	256
attr interpolationmode  none
attr source  rxPkOk
attr title  "packets received OK, sum(packetBytes)"
scalar Topo.client4.eth[0].mac 	txPk:count 	475
attr interpolationmode  none
attr source  txPk
attr title  "packets transmitted, count"
scalar Topo.client4.eth[0].mac 	txPk:sum(packetBytes) 	614368
attr interpolationmode  none
attr source  txPk
attr title  "packets transmitted, sum(packetBytes)"
scalar Topo.client4.eth[0].mac 	passedUpPk:count 	4
attr interpolationmode  none
attr source  packetSentToUpper
attr title  "packets passed to higher layer, count"
scalar Topo.client4.eth[0].mac 	passedUpPk:sum(packetBytes) 	256
attr interpolationmode  none
attr source  packetSentToUpper
attr title  "packets passed to higher layer, sum(packetBytes)"
scalar Topo.client4.eth[0].encap 	pauseSent:count 	0
attr title  "pause sent, count"
scalar Topo.client4.eth[0].encap 	pauseSent:sum 	0
attr title  "pause sent, sum"
scalar Topo.client4.eth[0].encap 	decapPk:count 	4
attr interpolationmode  none
attr source  decapPk
attr title  "packets decapsulated, count"
scalar Topo.client4.eth[0].encap 	decapPk:sum(packetBytes) 	112
attr interpolationmode  none
attr source  decapPk
attr title  "packets decapsulated, sum(packetBytes)"
scalar Topo.client4.eth[0].encap 	encapPk:count 	475
attr interpolationmode  none
attr source  encapPk
attr title  "packets encapsulated, count"
scalar Topo.client4.eth[0].encap 	encapPk:sum(packetBytes) 	605800
attr interpolationmode  none
attr source  encapPk
attr title  "packets encapsulated, sum(packetBytes)"
scalar Topo.client4.udpApp[0] 	"packets sent" 	474
scalar Topo.client4.udpApp[0] 	"packets received" 	0
scalar Topo.client4.udpApp[0] 	rcvdPk:count 	0
attr interpolationmode  none
attr source  rcvdPk
attr title  "packets received, count"
scalar Topo.client4.udpApp[0] 	rcvdPk:sum(packetBytes) 	0
attr interpolationmode  none
attr source  rcvdPk
attr title  "packets received, sum(packetBytes)"
statistic Topo.client4.udpApp[0] 	rcvdPkLifetime:stats
field count 0
field mean -nan
field stddev -nan
field sum 0
field sqrsum 0
field min -nan
field max -nan
attr interpolationmode  none
attr source  messageAge(rcvdPk)
attr title  "received packet lifetime, stats"
attr unit  s
scalar Topo.client4.udpApp[0] 	sentPk:count 	474
attr interpolationmode  none
attr source  sentPk
attr title  "packets sent, count"
scalar Topo.client4.udpApp[0] 	sentPk:sum(packetBytes) 	592500
attr interpolationmode  none
attr source  sentPk
attr title  "packets sent, sum(packetBytes)"
scalar Topo.client4.udp 	droppedPkBadChecksum:count 	0
attr interpolationmode  none
attr title  "packets dropped (checksum error), count"
scalar Topo.client4.udp 	droppedPkWrongPort:count 	0
attr interpolationmode  none
attr title  "packets dropped (wrong port), count"
scalar Topo.client4.udp 	passedUpPk:count 	0
attr interpolationmode  none
attr title  "packets passed up, count"
scalar Topo.client4.udp 	rcvdPk:count 	0
attr interpolationmode  none
attr source  rcvdPk
attr title  "packets received, count"
scalar Topo.client4.udp 	rcvdPk:sum(packetBytes) 	0
attr interpolationmode  none
attr source  rcvdPk
attr title  "packets received, sum(packetBytes)"
scalar Topo.client4.udp 	sentPk:count 	474
attr interpolationmode  none
attr source  sentPk
attr title  "packets sent, count"
scalar Topo.client4.udp 	sentPk:sum(packetBytes) 	596292
attr interpolationmode  none
attr source  sentPk
attr title  "packets sent, sum(packetBytes)"
scalar Topo.server1.networkLayer.arp 	failedARPResolution:count 	0
attr title  "ARP failed resolutions, count"
scalar Topo.server1.networkLayer.arp 	completedARPResolution:count 	1
attr title  "ARP completed resolutions, count"
scalar Topo.server1.networkLayer.arp 	initiatedARPResolution:count 	0
attr title  "ARP initiated resolutions, count"
scalar Topo.server1.networkLayer.arp 	sentReply:count 	1
attr title  "ARP replies sent, count"
scalar Topo.server1.networkLayer.arp 	sentReq:count 	0
attr title  "ARP request sent, count"
scalar Topo.server1.lo0.lo 	droppedPkBitError:count 	0
attr interpolationmode  none
attr source  dropPkBitError
attr title  "packets dropped/bit error, count"
scalar Topo.server1.lo0.lo 	droppedPkBitError:sum(packetBytes) 	0
attr interpolationmode  none
attr source  dropPkBitError
attr title  "packets dropped/bit error, sum(packetBytes)"
scalar Topo.server1.lo0.lo 	rcvdPkFromHL:count 	0
attr interpolationmode  none
attr source  packetReceivedFromUpper
attr title  "packets received from higher layer, count"
scalar Topo.server1.lo0.lo 	rcvdPkFromHL:sum(packetBytes) 	0
attr interpolationmode  none
attr source  packetReceivedFromUpper
attr title  "packets received from higher layer, sum(packetBytes)"
scalar Topo.server1.lo0.lo 	passedUpPk:count 	0
attr interpolationmode  none
attr source  packetSentToUpper
attr title  "packets passed to higher layer, count"
scalar Topo.server1.lo0.lo 	passedUpPk:sum(packetBytes) 	0
attr interpolationmode  none
attr source  packetSentToUpper
attr title  "packets passed to higher layer, sum(packetBytes)"
scalar Topo.server1.eth[0].mac 	"simulated time" 	94.990056719999
scalar Topo.server1.eth[0].mac 	full-duplex 	1
scalar Topo.server1.eth[0].mac 	"frames/sec sent" 	0.010527417653278
scalar Topo.server1.eth[0].mac 	"frames/sec rcvd" 	10.032629023574
scalar Topo.server1.eth[0].mac 	"bits/sec sent" 	5.3900378384784
scalar Topo.server1.eth[0].mac 	"bits/sec rcvd" 	103603.26480285
scalar Topo.server1.eth[0].mac 	"rx channel idle (%)" 	99.89575464694
scalar Topo.server1.eth[0].mac 	"rx channel utilization (%)" 	0.10424535306036
scalar Topo.server1.eth[0].mac 	droppedPkNotForUs:count 	0
attr interpolationmode  none
attr source  dropPkNotForUs
attr title  "packets dropped/not for us, count"
scalar Topo.server1.eth[0].mac 	droppedPkNotForUs:sum(packetBytes) 	0
attr interpolationmode  none
attr source  dropPkNotForUs
attr title  "packets dropped/not for us, sum(packetBytes)"
scalar Topo.server1.eth[0].mac 	droppedPkIfaceDown:count 	0
attr interpolationmode  none
attr source  dropPkIfaceDown
attr title  "packets dropped/interface down, count"
scalar Topo.server1.eth[0].mac 	droppedPkIfaceDown:sum(packetBytes) 	0
attr interpolationmode  none
attr source  dropPkIfaceDown
attr title  "packets dropped/interface down, sum(packetBytes)"
scalar Topo.server1.eth[0].mac 	droppedPkBitError:count 	0
attr interpolationmode  none
attr source  dropPkBitError
attr title  "packets dropped/bit error, count"
scalar Topo.server1.eth[0].mac 	droppedPkBitError:sum(packetBytes) 	0
attr interpolationmode  none
attr source  dropPkBitError
attr title  "packets dropped/bit error, sum(packetBytes)"
scalar Topo.server1.eth[0].mac 	rxPkFromHL:count 	1
attr interpolationmode  none
attr source  rxPkFromHL
attr title  "packet bytes from higher layer, count"
scalar Topo.server1.eth[0].mac 	rxPkFromHL:sum(packetBytes) 	64
attr interpolationmode  none
attr source  rxPkFromHL
attr title  "packet bytes from higher layer, sum(packetBytes)"
scalar Topo.server1.eth[0].mac 	rxPausePkUnits:count 	0
attr interpolationmode  none
attr title  "pause units received, count"
scalar Topo.server1.eth[0].mac 	rxPausePkUnits:sum 	0
attr interpolationmode  none
attr title  "pause units received, sum"
scalar Topo.server1.eth[0].mac 	txPausePkUnits:count 	0
attr interpolationmode  none
attr title  "pause units sent, count"
scalar Topo.server1.eth[0].mac 	txPausePkUnits:sum 	0
attr interpolationmode  none
attr title  "pause units sent, sum"
scalar Topo.server1.eth[0].mac 	rxPkOk:count 	953
attr interpolationmode  none
attr source  rxPkOk
attr title  "packets received OK, count"
scalar Topo.server1.eth[0].mac 	rxPkOk:sum(packetBytes) 	1230160
attr interpolationmode  none
attr source  rxPkOk
attr title  "packets received OK, sum(packetBytes)"
scalar Topo.server1.eth[0].mac 	txPk:count 	1
attr interpolationmode  none
attr source  txPk
attr title  "packets transmitted, count"
scalar Topo.server1.eth[0].mac 	txPk:sum(packetBytes) 	64
attr interpolationmode  none
attr source  txPk
attr title  "packets transmitted, sum(packetBytes)"
scalar Topo.server1.eth[0].mac 	passedUpPk:count 	953
attr interpolationmode  none
attr source  packetSentToUpper
attr title  "packets passed to higher layer, count"
scalar Topo.server1.eth[0].mac 	passedUpPk:sum(packetBytes) 	1230160
attr interpolationmode  none
attr source  packetSentToUpper
attr title  "packets passed to higher layer, sum(packetBytes)"
scalar Topo.server1.eth[0].encap 	pauseSent:count 	0
attr title  "pause sent, count"
scalar Topo.server1.eth[0].encap 	pauseSent:sum 	0
attr title  "pause sent, sum"
scalar Topo.server1.eth[0].encap 	decapPk:count 	953
attr interpolationmode  none
attr source  decapPk
attr title  "packets decapsulated, count"
scalar Topo.server1.eth[0].encap 	decapPk:sum(packetBytes) 	1212934
attr interpolationmode  none
attr source  decapPk
attr title  "packets decapsulated, sum(packetBytes)"
scalar Topo.server1.eth[0].encap 	encapPk:count 	1
attr interpolationmode  none
attr source  encapPk
attr title  "packets encapsulated, count"
scalar Topo.server1.eth[0].encap 	encapPk:sum(packetBytes) 	28
attr interpolationmode  none
attr source  encapPk
attr title  "packets encapsulated, sum(packetBytes)"
scalar Topo.server1.udpApp[0] 	rcvdPk:count 	949
attr interpolationmode  none
attr source  rcvdPk
attr title  "packets received, count"
scalar Topo.server1.udpApp[0] 	rcvdPk:sum(packetBytes) 	1186250
attr interpolationmode  none
attr source  rcvdPk
attr title  "packets received, sum(packetBytes)"
scalar Topo.server1.udp 	droppedPkBadChecksum:count 	0
attr interpolationmode  none
attr title  "packets dropped (checksum error), count"
scalar Topo.server1.udp 	droppedPkWrongPort:count 	0
attr interpolationmode  none
attr title  "packets dropped (wrong port), count"
scalar Topo.server1.udp 	passedUpPk:count 	949
attr interpolationmode  none
attr title  "packets passed up, count"
scalar Topo.server1.udp 	rcvdPk:count 	949
attr interpolationmode  none
attr source  rcvdPk
attr title  "packets received, count"
scalar Topo.server1.udp 	rcvdPk:sum(packetBytes) 	1193842
attr interpolationmode  none
attr source  rcvdPk
attr title  "packets received, sum(packetBytes)"
scalar Topo.server1.udp 	sentPk:count 	0
attr interpolationmode  none
attr source  sentPk
attr title  "packets sent, count"
scalar Topo.server1.udp 	sentPk:sum(packetBytes) 	0
attr interpolationmode  none
attr source  sentPk
attr title  "packets sent, sum(packetBytes)"
scalar Topo.server2.networkLayer.arp 	failedARPResolution:count 	0
attr title  "ARP failed resolutions, count"
scalar Topo.server2.networkLayer.arp 	completedARPResolution:count 	2
attr title  "ARP completed resolutions, count"
scalar Topo.server2.networkLayer.arp 	initiatedARPResolution:count 	0
attr title  "ARP initiated resolutions, count"
scalar Topo.server2.networkLayer.arp 	sentReply:count 	2
attr title  "ARP replies sent, count"
scalar Topo.server2.networkLayer.arp 	sentReq:count 	0
attr title  "ARP request sent, count"
scalar Topo.server2.lo0.lo 	droppedPkBitError:count 	0
attr interpolationmode  none
attr source  dropPkBitError
attr title  "packets dropped/bit error, count"
scalar Topo.server2.lo0.lo 	droppedPkBitError:sum(packetBytes) 	0
attr interpolationmode  none
attr source  dropPkBitError
attr title  "packets dropped/bit error, sum(packetBytes)"
scalar Topo.server2.lo0.lo 	rcvdPkFromHL:count 	0
attr interpolationmode  none
attr source  packetReceivedFromUpper
attr title  "packets received from higher layer, count"
scalar Topo.server2.lo0.lo 	rcvdPkFromHL:sum(packetBytes) 	0
attr interpolationmode  none
attr source  packetReceivedFromUpper
attr title  "packets received from higher layer, sum(packetBytes)"
scalar Topo.server2.lo0.lo 	passedUpPk:count 	0
attr interpolationmode  none
attr source  packetSentToUpper
attr title  "packets passed to higher layer, count"
scalar Topo.server2.lo0.lo 	passedUpPk:sum(packetBytes) 	0
attr interpolationmode  none
attr source  packetSentToUpper
attr title  "packets passed to higher layer, sum(packetBytes)"
scalar Topo.server2.eth[0].mac 	"simulated time" 	94.990056719999
scalar Topo.server2.eth[0].mac 	full-duplex 	1
scalar Topo.server2.eth[0].mac 	"frames/sec sent" 	0.021054835306556
scalar Topo.server2.eth[0].mac 	"frames/sec rcvd" 	10.295814464906
scalar Topo.server2.eth[0].mac 	"bits/sec sent" 	10.780075676957
scalar Topo.server2.eth[0].mac 	"bits/sec rcvd" 	54452.857263228
scalar Topo.server2.eth[0].mac 	"rx channel idle (%)" 	99.944888210611
scalar Topo.server2.eth[0].mac 	"rx channel utilization (%)" 	0.055111789388982
scalar Topo.server2.eth[0].mac 	droppedPkNotForUs:count 	0
attr interpolationmode  none
attr source  dropPkNotForUs
attr title  "packets dropped/not for us, count"
scalar Topo.server2.eth[0].mac 	droppedPkNotForUs:sum(packetBytes) 	0
attr interpolationmode  none
attr source  dropPkNotForUs
attr title  "packets dropped/not for us, sum(packetBytes)"
scalar Topo.server2.eth[0].mac 	droppedPkIfaceDown:count 	0
attr interpolationmode  none
attr source  dropPkIfaceDown
attr title  "packets dropped/interface down, count"
scalar Topo.server2.eth[0].mac 	droppedPkIfaceDown:sum(packetBytes) 	0
attr interpolationmode  none
attr source  dropPkIfaceDown
attr title  "packets dropped/interface down, sum(packetBytes)"
scalar Topo.server2.eth[0].mac 	droppedPkBitError:count 	0
attr interpolationmode  none
attr source  dropPkBitError
attr title  "packets dropped/bit error, count"
scalar Topo.server2.eth[0].mac 	droppedPkBitError:sum(packetBytes) 	0
attr interpolationmode  none
attr source  dropPkBitError
attr title  "packets dropped/bit error, sum(packetBytes)"
scalar Topo.server2.eth[0].mac 	rxPkFromHL:count 	2
attr interpolationmode  none
attr source  rxPkFromHL
attr title  "packet bytes from higher layer, count"
scalar Topo.server2.eth[0].mac 	rxPkFromHL:sum(packetBytes) 	128
attr interpolationmode  none
attr source  rxPkFromHL
attr title  "packet bytes from higher layer, sum(packetBytes)"
scalar Topo.server2.eth[0].mac 	rxPausePkUnits:count 	0
attr interpolationmode  none
attr title  "pause units received, count"
scalar Topo.server2.eth[0].mac 	rxPausePkUnits:sum 	0
attr interpolationmode  none
attr title  "pause units received, sum"
scalar Topo.server2.eth[0].mac 	txPausePkUnits:count 	0
attr interpolationmode  none
attr title  "pause units sent, count"
scalar Topo.server2.eth[0].mac 	txPausePkUnits:sum 	0
attr interpolationmode  none
attr title  "pause units sent, sum"
scalar Topo.server2.eth[0].mac 	rxPkOk:count 	978
attr interpolationmode  none
attr source  rxPkOk
attr title  "packets received OK, count"
scalar Topo.server2.eth[0].mac 	rxPkOk:sum(packetBytes) 	646560
attr interpolationmode  none
attr source  rxPkOk
attr title  "packets received OK, sum(packetBytes)"
scalar Topo.server2.eth[0].mac 	txPk:count 	2
attr interpolationmode  none
attr source  txPk
attr title  "packets transmitted, count"
scalar Topo.server2.eth[0].mac 	txPk:sum(packetBytes) 	128
attr interpolationmode  none
attr source  txPk
attr title  "packets transmitted, sum(packetBytes)"
scalar Topo.server2.eth[0].mac 	passedUpPk:count 	978
attr interpolationmode  none
attr source  packetSentToUpper
attr title  "packets passed to higher layer, count"
scalar Topo.server2.eth[0].mac 	passedUpPk:sum(packetBytes) 	646560
attr interpolationmode  none
attr source  packetSentToUpper
attr title  "packets passed to higher layer, sum(packetBytes)"
scalar Topo.server2.eth[0].encap 	pauseSent:count 	0
attr title  "pause sent, count"
scalar Topo.server2.eth[0].encap 	pauseSent:sum 	0
attr title  "pause sent, sum"
scalar Topo.server2.eth[0].encap 	decapPk:count 	978
attr interpolationmode  none
attr source  decapPk
attr title  "packets decapsulated, count"
scalar Topo.server2.eth[0].encap 	decapPk:sum(packetBytes) 	619884
attr interpolationmode  none
attr source  decapPk
attr title  "packets decapsulated, sum(packetBytes)"
scalar Topo.server2.eth[0].encap 	encapPk:count 	2
attr interpolationmode  none
attr source  encapPk
attr title  "packets encapsulated, count"
scalar Topo.server2.eth[0].encap 	encapPk:sum(packetBytes) 	56
attr interpolationmode  none
attr source  encapPk
attr title  "packets encapsulated, sum(packetBytes)"
scalar Topo.server2.udpApp[0] 	rcvdPk:count 	974
attr interpolationmode  none
attr source  rcvdPk
attr title  "packets received, count"
scalar Topo.server2.udpApp[0] 	rcvdPk:sum(packetBytes) 	592500
attr interpolationmode  none
attr source  rcvdPk
attr title  "packets received, sum(packetBytes)"
scalar Topo.server2.udp 	droppedPkBadChecksum:count 	0
attr interpolationmode  none
attr title  "packets dropped (checksum error), count"
scalar Topo.server2.udp 	droppedPkWrongPort:count 	0
attr interpolationmode  none
attr title  "packets dropped (wrong port), count"
scalar Topo.server2.udp 	passedUpPk:count 	974
attr interpolationmode  none
attr title  "packets passed up, count"
scalar Topo.server2.udp 	rcvdPk:count 	974
attr interpolationmode  none
attr source  rcvdPk
attr title  "packets received, count"
scalar Topo.server2.udp 	rcvdPk:sum(packetBytes) 	600292
attr interpolationmode  none
attr source  rcvdPk
attr title  "packets received, sum(packetBytes)"
scalar Topo.server2.udp 	sentPk:count 	0
attr interpolationmode  none
attr source  sentPk
attr title  "packets sent, count"
scalar Topo.server2.udp 	sentPk:sum(packetBytes) 	0
attr interpolationmode  none
attr source  sentPk
attr title  "packets sent, sum(packetBytes)"
scalar Topo.server3.networkLayer.arp 	failedARPResolution:count 	0
attr title  "ARP failed resolutions, count"
scalar Topo.server3.networkLayer.arp 	completedARPResolution:count 	1
attr title  "ARP completed resolutions, count"
scalar Topo.server3.networkLayer.arp 	initiatedARPResolution:count 	0
attr title  "ARP initiated resolutions, count"
scalar Topo.server3.networkLayer.arp 	sentReply:count 	1
attr title  "ARP replies sent, count"
scalar Topo.server3.networkLayer.arp 	sentReq:count 	0
attr title  "ARP request sent, count"
scalar Topo.server3.lo0.lo 	droppedPkBitError:count 	0
attr interpolationmode  none
attr source  dropPkBitError
attr title  "packets dropped/bit error, count"
scalar Topo.server3.lo0.lo 	droppedPkBitError:sum(packetBytes) 	0
attr interpolationmode  none
attr source  dropPkBitError
attr title  "packets dropped/bit error, sum(packetBytes)"
scalar Topo.server3.lo0.lo 	rcvdPkFromHL:count 	0
attr interpolationmode  none
attr source  packetReceivedFromUpper
attr title  "packets received from higher layer, count"
scalar Topo.server3.lo0.lo 	rcvdPkFromHL:sum(packetBytes) 	0
attr interpolationmode  none
attr source  packetReceivedFromUpper
attr title  "packets received from higher layer, sum(packetBytes)"
scalar Topo.server3.lo0.lo 	passedUpPk:count 	0
attr interpolationmode  none
attr source  packetSentToUpper
attr title  "packets passed to higher layer, count"
scalar Topo.server3.lo0.lo 	passedUpPk:sum(packetBytes) 	0
attr interpolationmode  none
attr source  packetSentToUpper
attr title  "packets passed to higher layer, sum(packetBytes)"
scalar Topo.server3.eth[0].mac 	"simulated time" 	94.990056719999
scalar Topo.server3.eth[0].mac 	full-duplex 	1
scalar Topo.server3.eth[0].mac 	"frames/sec sent" 	0.010527417653278
scalar Topo.server3.eth[0].mac 	"frames/sec rcvd" 	5.0321056382669
scalar Topo.server3.eth[0].mac 	"bits/sec sent" 	5.3900378384784
scalar Topo.server3.eth[0].mac 	"bits/sec rcvd" 	51757.838343988
scalar Topo.server3.eth[0].mac 	"rx channel idle (%)" 	99.947920106895
scalar Topo.server3.eth[0].mac 	"rx channel utilization (%)" 	0.052079893104838
scalar Topo.server3.eth[0].mac 	droppedPkNotForUs:count 	0
attr interpolationmode  none
attr source  dropPkNotForUs
attr title  "packets dropped/not for us, count"
scalar Topo.server3.eth[0].mac 	droppedPkNotForUs:sum(packetBytes) 	0
attr interpolationmode  none
attr source  dropPkNotForUs
attr title  "packets dropped/not for us, sum(packetBytes)"
scalar Topo.server3.eth[0].mac 	droppedPkIfaceDown:count 	0
attr interpolationmode  none
attr source  dropPkIfaceDown
attr title  "packets dropped/interface down, count"
scalar Topo.server3.eth[0].mac 	droppedPkIfaceDown:sum(packetBytes) 	0
attr interpolationmode  none
attr source  dropPkIfaceDown
attr title  "packets dropped/interface down, sum(packetBytes)"
scalar Topo.server3.eth[0].mac 	droppedPkBitError:count 	0
attr interpolationmode  none
attr source  dropPkBitError
attr title  "packets dropped/bit error, count"
scalar Topo.server3.eth[0].mac 	droppedPkBitError:sum(packetBytes) 	0
attr interpolationmode  none
attr source  dropPkBitError
attr title  "packets dropped/bit error, sum(packetBytes)"
scalar Topo.server3.eth[0].mac 	rxPkFromHL:count 	1
attr interpolationmode  none
attr source  rxPkFromHL
attr title  "packet bytes from higher layer, count"
scalar Topo.server3.eth[0].mac 	rxPkFromHL:sum(packetBytes) 	64
attr interpolationmode  none
attr source  rxPkFromHL
attr title  "packet bytes from higher layer, sum(packetBytes)"
scalar Topo.server3.eth[0].mac 	rxPausePkUnits:count 	0
attr interpolationmode  none
attr title  "pause units received, count"
scalar Topo.server3.eth[0].mac 	rxPausePkUnits:sum 	0
attr interpolationmode  none
attr title  "pause units received, sum"
scalar Topo.server3.eth[0].mac 	txPausePkUnits:count 	0
attr interpolationmode  none
attr title  "pause units sent, count"
scalar Topo.server3.eth[0].mac 	txPausePkUnits:sum 	0
attr interpolationmode  none
attr title  "pause units sent, sum"
scalar Topo.server3.eth[0].mac 	rxPkOk:count 	478
attr interpolationmode  none
attr source  rxPkOk
attr title  "packets received OK, count"
scalar Topo.server3.eth[0].mac 	rxPkOk:sum(packetBytes) 	614560
attr interpolationmode  none
attr source  rxPkOk
attr title  "packets received OK, sum(packetBytes)"
scalar Topo.server3.eth[0].mac 	txPk:count 	1
attr interpolationmode  none
attr source  txPk
attr title  "packets transmitted, count"
scalar Topo.server3.eth[0].mac 	txPk:sum(packetBytes) 	64
attr interpolationmode  none
attr source  txPk
attr title  "packets transmitted, sum(packetBytes)"
scalar Topo.server3.eth[0].mac 	passedUpPk:count 	478
attr interpolationmode  none
attr source  packetSentToUpper
attr title  "packets passed to higher layer, count"
scalar Topo.server3.eth[0].mac 	passedUpPk:sum(packetBytes) 	614560
attr interpolationmode  none
attr source  packetSentToUpper
attr title  "packets passed to higher layer, sum(packetBytes)"
scalar Topo.server3.eth[0].encap 	pauseSent:count 	0
attr title  "pause sent, count"
scalar Topo.server3.eth[0].encap 	pauseSent:sum 	0
attr title  "pause sent, sum"
scalar Topo.server3.eth[0].encap 	decapPk:count 	478
attr interpolationmode  none
attr source  decapPk
attr title  "packets decapsulated, count"
scalar Topo.server3.eth[0].encap 	decapPk:sum(packetBytes) 	605884
attr interpolationmode  none
attr source  decapPk
attr title  "packets decapsulated, sum(packetBytes)"
scalar Topo.server3.eth[0].encap 	encapPk:count 	1
attr interpolationmode  none
attr source  encapPk
attr title  "packets encapsulated, count"
scalar Topo.server3.eth[0].encap 	encapPk:sum(packetBytes) 	28
attr interpolationmode  none
attr source  encapPk
attr title  "packets encapsulated, sum(packetBytes)"
scalar Topo.server3.udpApp[0] 	rcvdPk:count 	474
attr interpolationmode  none
attr source  rcvdPk
attr title  "packets received, count"
scalar Topo.server3.udpApp[0] 	rcvdPk:sum(packetBytes) 	592500
attr interpolationmode  none
attr source  rcvdPk
attr title  "packets received, sum(packetBytes)"
scalar Topo.server3.udp 	droppedPkBadChecksum:count 	0
attr interpolationmode  none
attr title  "packets dropped (checksum error), count"
scalar Topo.server3.udp 	droppedPkWrongPort:count 	0
attr interpolationmode  none
attr title  "packets dropped (wrong port), count"
scalar Topo.server3.udp 	passedUpPk:count 	474
attr interpolationmode  none
attr title  "packets passed up, count"
scalar Topo.server3.udp 	rcvdPk:count 	474
attr interpolationmode  none
attr source  rcvdPk
attr title  "packets received, count"
scalar Topo.server3.udp 	rcvdPk:sum(packetBytes) 	596292
attr interpolationmode  none
attr source  rcvdPk
attr title  "packets received, sum(packetBytes)"
scalar Topo.server3.udp 	sentPk:count 	0
attr interpolationmode  none
attr source  sentPk
attr title  "packets sent, count"
scalar Topo.server3.udp 	sentPk:sum(packetBytes) 	0
attr interpolationmode  none
attr source  sentPk
attr title  "packets sent, sum(packetBytes)"
scalar Topo.s1.networkLayer.arp 	failedARPResolution:count 	0
attr title  "ARP failed resolutions, count"
scalar Topo.s1.networkLayer.arp 	completedARPResolution:count 	1
attr title  "ARP completed resolutions, count"
scalar Topo.s1.networkLayer.arp 	initiatedARPResolution:count 	1
attr title  "ARP initiated resolutions, count"
scalar Topo.s1.networkLayer.arp 	sentReply:count 	0
attr title  "ARP replies sent, count"
scalar Topo.s1.networkLayer.arp 	sentReq:count 	1
attr title  "ARP request sent, count"
scalar Topo.s1.eth[0].mac 	"simulated time" 	94.990056719999
scalar Topo.s1.eth[0].mac 	full-duplex 	1
scalar Topo.s1.eth[0].mac 	"frames/sec sent" 	14.064629984779
scalar Topo.s1.eth[0].mac 	"frames/sec rcvd" 	14.054102567126
scalar Topo.s1.eth[0].mac 	"bits/sec sent" 	10633.702461906
scalar Topo.s1.eth[0].mac 	"bits/sec rcvd" 	10628.565082091
scalar Topo.s1.eth[0].mac 	"rx channel idle (%)" 	99.988471972354
scalar Topo.s1.eth[0].mac 	"rx channel utilization (%)" 	0.011528027646387
scalar Topo.s1.eth[0].mac 	droppedPkNotForUs:count 	0
attr interpolationmode  none
attr source  dropPkNotForUs
attr title  "packets dropped/not for us, count"
scalar Topo.s1.eth[0].mac 	droppedPkNotForUs:sum(packetBytes) 	0
attr interpolationmode  none
attr source  dropPkNotForUs
attr title  "packets dropped/not for us, sum(packetBytes)"
scalar Topo.s1.eth[0].mac 	droppedPkIfaceDown:count 	0
attr interpolationmode  none
attr source  dropPkIfaceDown
attr title  "packets dropped/interface down, count"
scalar Topo.s1.eth[0].mac 	droppedPkIfaceDown:sum(packetBytes) 	0
attr interpolationmode  none
attr source  dropPkIfaceDown
attr title  "packets dropped/interface down, sum(packetBytes)"
scalar Topo.s1.eth[0].mac 	droppedPkBitError:count 	0
attr interpolationmode  none
attr source  dropPkBitError
attr title  "packets dropped/bit error, count"
scalar Topo.s1.eth[0].mac 	droppedPkBitError:sum(packetBytes) 	0
attr interpolationmode  none
attr source  dropPkBitError
attr title  "packets dropped/bit error, sum(packetBytes)"
scalar Topo.s1.eth[0].mac 	rxPkFromHL:count 	1336
attr interpolationmode  none
attr source  rxPkFromHL
attr title  "packet bytes from higher layer, count"
scalar Topo.s1.eth[0].mac 	rxPkFromHL:sum(packetBytes) 	126262
attr interpolationmode  none
attr source  rxPkFromHL
attr title  "packet bytes from higher layer, sum(packetBytes)"
scalar Topo.s1.eth[0].mac 	rxPausePkUnits:count 	0
attr interpolationmode  none
attr title  "pause units received, count"
scalar Topo.s1.eth[0].mac 	rxPausePkUnits:sum 	0
attr interpolationmode  none
attr title  "pause units received, sum"
scalar Topo.s1.eth[0].mac 	txPausePkUnits:count 	0
attr interpolationmode  none
attr title  "pause units sent, count"
scalar Topo.s1.eth[0].mac 	txPausePkUnits:sum 	0
attr interpolationmode  none
attr title  "pause units sent, sum"
scalar Topo.s1.eth[0].mac 	rxPkOk:count 	1335
attr interpolationmode  none
attr source  rxPkOk
attr title  "packets received OK, count"
scalar Topo.s1.eth[0].mac 	rxPkOk:sum(packetBytes) 	126201
attr interpolationmode  none
attr source  rxPkOk
attr title  "packets received OK, sum(packetBytes)"
scalar Topo.s1.eth[0].mac 	txPk:count 	1336
attr interpolationmode  none
attr source  txPk
attr title  "packets transmitted, count"
scalar Topo.s1.eth[0].mac 	txPk:sum(packetBytes) 	126262
attr interpolationmode  none
attr source  txPk
attr title  "packets transmitted, sum(packetBytes)"
scalar Topo.s1.eth[0].mac 	passedUpPk:count 	1335
attr interpolationmode  none
attr source  packetSentToUpper
attr title  "packets passed to higher layer, count"
scalar Topo.s1.eth[0].mac 	passedUpPk:sum(packetBytes) 	126201
attr interpolationmode  none
attr source  packetSentToUpper
attr title  "packets passed to higher layer, sum(packetBytes)"
scalar Topo.s1.eth[0].encap 	pauseSent:count 	0
attr title  "pause sent, count"
scalar Topo.s1.eth[0].encap 	pauseSent:sum 	0
attr title  "pause sent, sum"
scalar Topo.s1.eth[0].encap 	decapPk:count 	1335
attr interpolationmode  none
attr source  decapPk
attr title  "packets decapsulated, count"
scalar Topo.s1.eth[0].encap 	decapPk:sum(packetBytes) 	97260
attr interpolationmode  none
attr source  decapPk
attr title  "packets decapsulated, sum(packetBytes)"
scalar Topo.s1.eth[0].encap 	encapPk:count 	1336
attr interpolationmode  none
attr source  encapPk
attr title  "packets encapsulated, count"
scalar Topo.s1.eth[0].encap 	encapPk:sum(packetBytes) 	96896
attr interpolationmode  none
attr source  encapPk
attr title  "packets encapsulated, sum(packetBytes)"
scalar Topo.s1.etherMAC[0] 	"simulated time" 	94.990056719999
scalar Topo.s1.etherMAC[0] 	full-duplex 	1
scalar Topo.s1.etherMAC[0] 	"frames/sec sent" 	0.042109670613112
scalar Topo.s1.etherMAC[0] 	"frames/sec rcvd" 	10.001046770614
scalar Topo.s1.etherMAC[0] 	"bits/sec sent" 	21.560151353913
scalar Topo.s1.etherMAC[0] 	"bits/sec rcvd" 	103587.09468934
scalar Topo.s1.etherMAC[0] 	"rx channel idle (%)" 	99.895772838317
scalar Topo.s1.etherMAC[0] 	"rx channel utilization (%)" 	0.10422716168266
scalar Topo.s1.etherMAC[0] 	"rx channel collision (%)" 	0
scalar Topo.s1.etherMAC[0] 	collisions 	0
scalar Topo.s1.etherMAC[0] 	backoffs 	0
scalar Topo.s1.etherMAC[0] 	droppedPkNotForUs:count 	0
attr interpolationmode  none
attr source  dropPkNotForUs
attr title  "packets dropped/not for us, count"
scalar Topo.s1.etherMAC[0] 	droppedPkNotForUs:sum(packetBytes) 	0
attr interpolationmode  none
attr source  dropPkNotForUs
attr title  "packets dropped/not for us, sum(packetBytes)"
scalar Topo.s1.etherMAC[0] 	droppedPkIfaceDown:count 	0
attr interpolationmode  none
attr source  dropPkIfaceDown
attr title  "packets dropped/interface down, count"
scalar Topo.s1.etherMAC[0] 	droppedPkIfaceDown:sum(packetBytes) 	0
attr interpolationmode  none
attr source  dropPkIfaceDown
attr title  "packets dropped/interface down, sum(packetBytes)"
scalar Topo.s1.etherMAC[0] 	droppedPkBitError:count 	0
attr interpolationmode  none
attr source  dropPkBitError
attr title  "packets dropped/bit error, count"
scalar Topo.s1.etherMAC[0] 	droppedPkBitError:sum(packetBytes) 	0
attr interpolationmode  none
attr source  dropPkBitError
attr title  "packets dropped/bit error, sum(packetBytes)"
scalar Topo.s1.etherMAC[0] 	rxPkFromHL:count 	4
attr interpolationmode  none
attr source  rxPkFromHL
attr title  "packet bytes from higher layer, count"
scalar Topo.s1.etherMAC[0] 	rxPkFromHL:sum(packetBytes) 	256
attr interpolationmode  none
attr source  rxPkFromHL
attr title  "packet bytes from higher layer, sum(packetBytes)"
scalar Topo.s1.etherMAC[0] 	rxPausePkUnits:count 	0
attr interpolationmode  none
attr title  "pause units received, count"
scalar Topo.s1.etherMAC[0] 	rxPausePkUnits:sum 	0
attr interpolationmode  none
attr title  "pause units received, sum"
scalar Topo.s1.etherMAC[0] 	txPausePkUnits:count 	0
attr interpolationmode  none
attr title  "pause units sent, count"
scalar Topo.s1.etherMAC[0] 	txPausePkUnits:sum 	0
attr interpolationmode  none
attr title  "pause units sent, sum"
scalar Topo.s1.etherMAC[0] 	rxPkOk:count 	950
attr interpolationmode  none
attr source  rxPkOk
attr title  "packets received OK, count"
scalar Topo.s1.etherMAC[0] 	rxPkOk:sum(packetBytes) 	1229968
attr interpolationmode  none
attr source  rxPkOk
attr title  "packets received OK, sum(packetBytes)"
scalar Topo.s1.etherMAC[0] 	txPk:count 	4
attr interpolationmode  none
attr source  txPk
attr title  "packets transmitted, count"
scalar Topo.s1.etherMAC[0] 	txPk:sum(packetBytes) 	256
attr interpolationmode  none
attr source  txPk
attr title  "packets transmitted, sum(packetBytes)"
scalar Topo.s1.etherMAC[0] 	backoff:count 	0
attr interpolationmode  none
attr title  "backoff, count"
scalar Topo.s1.etherMAC[0] 	collision:count 	0
attr interpolationmode  none
attr title  "collision, count"
scalar Topo.s1.etherMAC[0] 	passedUpPk:count 	950
attr interpolationmode  none
attr source  packetSentToUpper
attr title  "packets passed to higher layer, count"
scalar Topo.s1.etherMAC[0] 	passedUpPk:sum(packetBytes) 	1229968
attr interpolationmode  none
attr source  packetSentToUpper
attr title  "packets passed to higher layer, sum(packetBytes)"
scalar Topo.s1.etherMAC[1] 	"simulated time" 	94.990056719999
scalar Topo.s1.etherMAC[1] 	full-duplex 	1
scalar Topo.s1.etherMAC[1] 	"frames/sec sent" 	0.042109670613112
scalar Topo.s1.etherMAC[1] 	"frames/sec rcvd" 	1.6738594068712
scalar Topo.s1.etherMAC[1] 	"bits/sec sent" 	21.560151353913
scalar Topo.s1.etherMAC[1] 	"bits/sec rcvd" 	17250.81610205
scalar Topo.s1.etherMAC[1] 	"rx channel idle (%)" 	99.982642056896
scalar Topo.s1.etherMAC[1] 	"rx channel utilization (%)" 	0.01735794310409
scalar Topo.s1.etherMAC[1] 	"rx channel collision (%)" 	0
scalar Topo.s1.etherMAC[1] 	collisions 	0
scalar Topo.s1.etherMAC[1] 	backoffs 	0
scalar Topo.s1.etherMAC[1] 	droppedPkNotForUs:count 	0
attr interpolationmode  none
attr source  dropPkNotForUs
attr title  "packets dropped/not for us, count"
scalar Topo.s1.etherMAC[1] 	droppedPkNotForUs:sum(packetBytes) 	0
attr interpolationmode  none
attr source  dropPkNotForUs
attr title  "packets dropped/not for us, sum(packetBytes)"
scalar Topo.s1.etherMAC[1] 	droppedPkIfaceDown:count 	0
attr interpolationmode  none
attr source  dropPkIfaceDown
attr title  "packets dropped/interface down, count"
scalar Topo.s1.etherMAC[1] 	droppedPkIfaceDown:sum(packetBytes) 	0
attr interpolationmode  none
attr source  dropPkIfaceDown
attr title  "packets dropped/interface down, sum(packetBytes)"
scalar Topo.s1.etherMAC[1] 	droppedPkBitError:count 	0
attr interpolationmode  none
attr source  dropPkBitError
attr title  "packets dropped/bit error, count"
scalar Topo.s1.etherMAC[1] 	droppedPkBitError:sum(packetBytes) 	0
attr interpolationmode  none
attr source  dropPkBitError
attr title  "packets dropped/bit error, sum(packetBytes)"
scalar Topo.s1.etherMAC[1] 	rxPkFromHL:count 	4
attr interpolationmode  none
attr source  rxPkFromHL
attr title  "packet bytes from higher layer, count"
scalar Topo.s1.etherMAC[1] 	rxPkFromHL:sum(packetBytes) 	256
attr interpolationmode  none
attr source  rxPkFromHL
attr title  "packet bytes from higher layer, sum(packetBytes)"
scalar Topo.s1.etherMAC[1] 	rxPausePkUnits:count 	0
attr interpolationmode  none
attr title  "pause units received, count"
scalar Topo.s1.etherMAC[1] 	rxPausePkUnits:sum 	0
attr interpolationmode  none
attr title  "pause units received, sum"
scalar Topo.s1.etherMAC[1] 	txPausePkUnits:count 	0
attr interpolationmode  none
attr title  "pause units sent, count"
scalar Topo.s1.etherMAC[1] 	txPausePkUnits:sum 	0
attr interpolationmode  none
attr title  "pause units sent, sum"
scalar Topo.s1.etherMAC[1] 	rxPkOk:count 	159
attr interpolationmode  none
attr source  rxPkOk
attr title  "packets received OK, count"
scalar Topo.s1.etherMAC[1] 	rxPkOk:sum(packetBytes) 	204832
attr interpolationmode  none
attr source  rxPkOk
attr title  "packets received OK, sum(packetBytes)"
scalar Topo.s1.etherMAC[1] 	txPk:count 	4
attr interpolationmode  none
attr source  txPk
attr title  "packets transmitted, count"
scalar Topo.s1.etherMAC[1] 	txPk:sum(packetBytes) 	256
attr interpolationmode  none
attr source  txPk
attr title  "packets transmitted, sum(packetBytes)"
scalar Topo.s1.etherMAC[1] 	backoff:count 	0
attr interpolationmode  none
attr title  "backoff, count"
scalar Topo.s1.etherMAC[1] 	collision:count 	0
attr interpolationmode  none
attr title  "collision, count"
scalar Topo.s1.etherMAC[1] 	passedUpPk:count 	159
attr interpolationmode  none
attr source  packetSentToUpper
attr title  "packets passed to higher layer, count"
scalar Topo.s1.etherMAC[1] 	passedUpPk:sum(packetBytes) 	204832
attr interpolationmode  none
attr source  packetSentToUpper
attr title  "packets passed to higher layer, sum(packetBytes)"
scalar Topo.s1.etherMAC[2] 	"simulated time" 	94.990056719999
scalar Topo.s1.etherMAC[2] 	full-duplex 	1
scalar Topo.s1.etherMAC[2] 	"frames/sec sent" 	0.042109670613112
scalar Topo.s1.etherMAC[2] 	"frames/sec rcvd" 	8.6009002227282
scalar Topo.s1.etherMAC[2] 	"bits/sec sent" 	21.560151353913
scalar Topo.s1.etherMAC[2] 	"bits/sec rcvd" 	37191.261085501
scalar Topo.s1.etherMAC[2] 	"rx channel idle (%)" 	99.9622582813
scalar Topo.s1.etherMAC[2] 	"rx channel utilization (%)" 	0.037741718699755
scalar Topo.s1.etherMAC[2] 	"rx channel collision (%)" 	0
scalar Topo.s1.etherMAC[2] 	collisions 	0
scalar Topo.s1.etherMAC[2] 	backoffs 	0
scalar Topo.s1.etherMAC[2] 	droppedPkNotForUs:count 	0
attr interpolationmode  none
attr source  dropPkNotForUs
attr title  "packets dropped/not for us, count"
scalar Topo.s1.etherMAC[2] 	droppedPkNotForUs:sum(packetBytes) 	0
attr interpolationmode  none
attr source  dropPkNotForUs
attr title  "packets dropped/not for us, sum(packetBytes)"
scalar Topo.s1.etherMAC[2] 	droppedPkIfaceDown:count 	0
attr interpolationmode  none
attr source  dropPkIfaceDown
attr title  "packets dropped/interface down, count"
scalar Topo.s1.etherMAC[2] 	droppedPkIfaceDown:sum(packetBytes) 	0
attr interpolationmode  none
attr source  dropPkIfaceDown
attr title  "packets dropped/interface down, sum(packetBytes)"
scalar Topo.s1.etherMAC[2] 	droppedPkBitError:count 	0
attr interpolationmode  none
attr source  dropPkBitError
attr title  "packets dropped/bit error, count"
scalar Topo.s1.etherMAC[2] 	droppedPkBitError:sum(packetBytes) 	0
attr interpolationmode  none
attr source  dropPkBitError
attr title  "packets dropped/bit error, sum(packetBytes)"
scalar Topo.s1.etherMAC[2] 	rxPkFromHL:count 	4
attr interpolationmode  none
attr source  rxPkFromHL
attr title  "packet bytes from higher layer, count"
scalar Topo.s1.etherMAC[2] 	rxPkFromHL:sum(packetBytes) 	256
attr interpolationmode  none
attr source  rxPkFromHL
attr title  "packet bytes from higher layer, sum(packetBytes)"
scalar Topo.s1.etherMAC[2] 	rxPausePkUnits:count 	0
attr interpolationmode  none
attr title  "pause units received, count"
scalar Topo.s1.etherMAC[2] 	rxPausePkUnits:sum 	0
attr interpolationmode  none
attr title  "pause units received, sum"
scalar Topo.s1.etherMAC[2] 	txPausePkUnits:count 	0
attr interpolationmode  none
attr title  "pause units sent, count"
scalar Topo.s1.etherMAC[2] 	txPausePkUnits:sum 	0
attr interpolationmode  none
attr title  "pause units sent, sum"
scalar Topo.s1.etherMAC[2] 	rxPkOk:count 	817
attr interpolationmode  none
attr source  rxPkOk
attr title  "packets received OK, count"
scalar Topo.s1.etherMAC[2] 	rxPkOk:sum(packetBytes) 	441600
attr interpolationmode  none
attr source  rxPkOk
attr title  "packets received OK, sum(packetBytes)"
scalar Topo.s1.etherMAC[2] 	txPk:count 	4
attr interpolationmode  none
attr source  txPk
attr title  "packets transmitted, count"
scalar Topo.s1.etherMAC[2] 	txPk:sum(packetBytes) 	256
attr interpolationmode  none
attr source  txPk
attr title  "packets transmitted, sum(packetBytes)"
scalar Topo.s1.etherMAC[2] 	backoff:count 	0
attr interpolationmode  none
attr title  "backoff, count"
scalar Topo.s1.etherMAC[2] 	collision:count 	0
attr interpolationmode  none
attr title  "collision, count"
scalar Topo.s1.etherMAC[2] 	passedUpPk:count 	817
attr interpolationmode  none
attr source  packetSentToUpper
attr title  "packets passed to higher layer, count"
scalar Topo.s1.etherMAC[2] 	passedUpPk:sum(packetBytes) 	441600
attr interpolationmode  none
attr source  packetSentToUpper
attr title  "packets passed to higher layer, sum(packetBytes)"
scalar Topo.s1.etherMAC[3] 	"simulated time" 	94.990056719999
scalar Topo.s1.etherMAC[3] 	full-duplex 	1
scalar Topo.s1.etherMAC[3] 	"frames/sec sent" 	0.042109670613112
scalar Topo.s1.etherMAC[3] 	"frames/sec rcvd" 	5.0005233853071
scalar Topo.s1.etherMAC[3] 	"bits/sec sent" 	21.560151353913
scalar Topo.s1.etherMAC[3] 	"bits/sec rcvd" 	51741.668230473
scalar Topo.s1.etherMAC[3] 	"rx channel idle (%)" 	99.947938298273
scalar Topo.s1.etherMAC[3] 	"rx channel utilization (%)" 	0.052061701727133
scalar Topo.s1.etherMAC[3] 	"rx channel collision (%)" 	0
scalar Topo.s1.etherMAC[3] 	collisions 	0
scalar Topo.s1.etherMAC[3] 	backoffs 	0
scalar Topo.s1.etherMAC[3] 	droppedPkNotForUs:count 	0
attr interpolationmode  none
attr source  dropPkNotForUs
attr title  "packets dropped/not for us, count"
scalar Topo.s1.etherMAC[3] 	droppedPkNotForUs:sum(packetBytes) 	0
attr interpolationmode  none
attr source  dropPkNotForUs
attr title  "packets dropped/not for us, sum(packetBytes)"
scalar Topo.s1.etherMAC[3] 	droppedPkIfaceDown:count 	0
attr interpolationmode  none
attr source  dropPkIfaceDown
attr title  "packets dropped/interface down, count"
scalar Topo.s1.etherMAC[3] 	droppedPkIfaceDown:sum(packetBytes) 	0
attr interpolationmode  none
attr source  dropPkIfaceDown
attr title  "packets dropped/interface down, sum(packetBytes)"
scalar Topo.s1.etherMAC[3] 	droppedPkBitError:count 	0
attr interpolationmode  none
attr source  dropPkBitError
attr title  "packets dropped/bit error, count"
scalar Topo.s1.etherMAC[3] 	droppedPkBitError:sum(packetBytes) 	0
attr interpolationmode  none
attr source  dropPkBitError
attr title  "packets dropped/bit error, sum(packetBytes)"
scalar Topo.s1.etherMAC[3] 	rxPkFromHL:count 	4
attr interpolationmode  none
attr source  rxPkFromHL
attr title  "packet bytes from higher layer, count"
scalar Topo.s1.etherMAC[3] 	rxPkFromHL:sum(packetBytes) 	256
attr interpolationmode  none
attr source  rxPkFromHL
attr title  "packet bytes from higher layer, sum(packetBytes)"
scalar Topo.s1.etherMAC[3] 	rxPausePkUnits:count 	0
attr interpolationmode  none
attr title  "pause units received, count"
scalar Topo.s1.etherMAC[3] 	rxPausePkUnits:sum 	0
attr interpolationmode  none
attr title  "pause units received, sum"
scalar Topo.s1.etherMAC[3] 	txPausePkUnits:count 	0
attr interpolationmode  none
attr title  "pause units sent, count"
scalar Topo.s1.etherMAC[3] 	txPausePkUnits:sum 	0
attr interpolationmode  none
attr title  "pause units sent, sum"
scalar Topo.s1.etherMAC[3] 	rxPkOk:count 	475
attr interpolationmode  none
attr source  rxPkOk
attr title  "packets received OK, count"
scalar Topo.s1.etherMAC[3] 	rxPkOk:sum(packetBytes) 	614368
attr interpolationmode  none
attr source  rxPkOk
attr title  "packets received OK, sum(packetBytes)"
scalar Topo.s1.etherMAC[3] 	txPk:count 	4
attr interpolationmode  none
attr source  txPk
attr title  "packets transmitted, count"
scalar Topo.s1.etherMAC[3] 	txPk:sum(packetBytes) 	256
attr interpolationmode  none
attr source  txPk
attr title  "packets transmitted, sum(packetBytes)"
scalar Topo.s1.etherMAC[3] 	backoff:count 	0
attr interpolationmode  none
attr title  "backoff, count"
scalar Topo.s1.etherMAC[3] 	collision:count 	0
attr interpolationmode  none
attr title  "collision, count"
scalar Topo.s1.etherMAC[3] 	passedUpPk:count 	475
attr interpolationmode  none
attr source  packetSentToUpper
attr title  "packets passed to higher layer, count"
scalar Topo.s1.etherMAC[3] 	passedUpPk:sum(packetBytes) 	614368
attr interpolationmode  none
attr source  packetSentToUpper
attr title  "packets passed to higher layer, sum(packetBytes)"
scalar Topo.s1.etherMAC[4] 	"simulated time" 	94.990056719999
scalar Topo.s1.etherMAC[4] 	full-duplex 	1
scalar Topo.s1.etherMAC[4] 	"frames/sec sent" 	10.032629023574
scalar Topo.s1.etherMAC[4] 	"frames/sec rcvd" 	0.010527417653278
scalar Topo.s1.etherMAC[4] 	"bits/sec sent" 	103603.26480285
scalar Topo.s1.etherMAC[4] 	"bits/sec rcvd" 	5.3900378384784
scalar Topo.s1.etherMAC[4] 	"rx channel idle (%)" 	99.999993936207
scalar Topo.s1.etherMAC[4] 	"rx channel utilization (%)" 	6.0637925682882e-06
scalar Topo.s1.etherMAC[4] 	"rx channel collision (%)" 	0
scalar Topo.s1.etherMAC[4] 	collisions 	0
scalar Topo.s1.etherMAC[4] 	backoffs 	0
scalar Topo.s1.etherMAC[4] 	droppedPkNotForUs:count 	0
attr interpolationmode  none
attr source  dropPkNotForUs
attr title  "packets dropped/not for us, count"
scalar Topo.s1.etherMAC[4] 	droppedPkNotForUs:sum(packetBytes) 	0
attr interpolationmode  none
attr source  dropPkNotForUs
attr title  "packets dropped/not for us, sum(packetBytes)"
scalar Topo.s1.etherMAC[4] 	droppedPkIfaceDown:count 	0
attr interpolationmode  none
attr source  dropPkIfaceDown
attr title  "packets dropped/interface down, count"
scalar Topo.s1.etherMAC[4] 	droppedPkIfaceDown:sum(packetBytes) 	0
attr interpolationmode  none
attr source  dropPkIfaceDown
attr title  "packets dropped/interface down, sum(packetBytes)"
scalar Topo.s1.etherMAC[4] 	droppedPkBitError:count 	0
attr interpolationmode  none
attr source  dropPkBitError
attr title  "packets dropped/bit error, count"
scalar Topo.s1.etherMAC[4] 	droppedPkBitError:sum(packetBytes) 	0
attr interpolationmode  none
attr source  dropPkBitError
attr title  "packets dropped/bit error, sum(packetBytes)"
scalar Topo.s1.etherMAC[4] 	rxPkFromHL:count 	953
attr interpolationmode  none
attr source  rxPkFromHL
attr title  "packet bytes from higher layer, count"
scalar Topo.s1.etherMAC[4] 	rxPkFromHL:sum(packetBytes) 	1230160
attr interpolationmode  none
attr source  rxPkFromHL
attr title  "packet bytes from higher layer, sum(packetBytes)"
scalar Topo.s1.etherMAC[4] 	rxPausePkUnits:count 	0
attr interpolationmode  none
attr title  "pause units received, count"
scalar Topo.s1.etherMAC[4] 	rxPausePkUnits:sum 	0
attr interpolationmode  none
attr title  "pause units received, sum"
scalar Topo.s1.etherMAC[4] 	txPausePkUnits:count 	0
attr interpolationmode  none
attr title  "pause units sent, count"
scalar Topo.s1.etherMAC[4] 	txPausePkUnits:sum 	0
attr interpolationmode  none
attr title  "pause units sent, sum"
scalar Topo.s1.etherMAC[4] 	rxPkOk:count 	1
attr interpolationmode  none
attr source  rxPkOk
attr title  "packets received OK, count"
scalar Topo.s1.etherMAC[4] 	rxPkOk:sum(packetBytes) 	64
attr interpolationmode  none
attr source  rxPkOk
attr title  "packets received OK, sum(packetBytes)"
scalar Topo.s1.etherMAC[4] 	txPk:count 	953
attr interpolationmode  none
attr source  txPk
attr title  "packets transmitted, count"
scalar Topo.s1.etherMAC[4] 	txPk:sum(packetBytes) 	1230160
attr interpolationmode  none
attr source  txPk
attr title  "packets transmitted, sum(packetBytes)"
scalar Topo.s1.etherMAC[4] 	backoff:count 	0
attr interpolationmode  none
attr title  "backoff, count"
scalar Topo.s1.etherMAC[4] 	collision:count 	0
attr interpolationmode  none
attr title  "collision, count"
scalar Topo.s1.etherMAC[4] 	passedUpPk:count 	1
attr interpolationmode  none
attr source  packetSentToUpper
attr title  "packets passed to higher layer, count"
scalar Topo.s1.etherMAC[4] 	passedUpPk:sum(packetBytes) 	64
attr interpolationmode  none
attr source  packetSentToUpper
attr title  "packets passed to higher layer, sum(packetBytes)"
scalar Topo.s1.etherMAC[5] 	"simulated time" 	94.990056719999
scalar Topo.s1.etherMAC[5] 	full-duplex 	1
scalar Topo.s1.etherMAC[5] 	"frames/sec sent" 	10.295814464906
scalar Topo.s1.etherMAC[5] 	"frames/sec rcvd" 	0.021054835306556
scalar Topo.s1.etherMAC[5] 	"bits/sec sent" 	54452.857263228
scalar Topo.s1.etherMAC[5] 	"bits/sec rcvd" 	10.780075676957
scalar Topo.s1.etherMAC[5] 	"rx channel idle (%)" 	99.999987872415
scalar Topo.s1.etherMAC[5] 	"rx channel utilization (%)" 	1.2127585136576e-05
scalar Topo.s1.etherMAC[5] 	"rx channel collision (%)" 	0
scalar Topo.s1.etherMAC[5] 	collisions 	0
scalar Topo.s1.etherMAC[5] 	backoffs 	0
scalar Topo.s1.etherMAC[5] 	droppedPkNotForUs:count 	0
attr interpolationmode  none
attr source  dropPkNotForUs
attr title  "packets dropped/not for us, count"
scalar Topo.s1.etherMAC[5] 	droppedPkNotForUs:sum(packetBytes) 	0
attr interpolationmode  none
attr source  dropPkNotForUs
attr title  "packets dropped/not for us, sum(packetBytes)"
scalar Topo.s1.etherMAC[5] 	droppedPkIfaceDown:count 	0
attr interpolationmode  none
attr source  dropPkIfaceDown
attr title  "packets dropped/interface down, count"
scalar Topo.s1.etherMAC[5] 	droppedPkIfaceDown:sum(packetBytes) 	0
attr interpolationmode  none
attr source  dropPkIfaceDown
attr title  "packets dropped/interface down, sum(packetBytes)"
scalar Topo.s1.etherMAC[5] 	droppedPkBitError:count 	0
attr interpolationmode  none
attr source  dropPkBitError
attr title  "packets dropped/bit error, count"
scalar Topo.s1.etherMAC[5] 	droppedPkBitError:sum(packetBytes) 	0
attr interpolationmode  none
attr source  dropPkBitError
attr title  "packets dropped/bit error, sum(packetBytes)"
scalar Topo.s1.etherMAC[5] 	rxPkFromHL:count 	978
attr interpolationmode  none
attr source  rxPkFromHL
attr title  "packet bytes from higher layer, count"
scalar Topo.s1.etherMAC[5] 	rxPkFromHL:sum(packetBytes) 	646560
attr interpolationmode  none
attr source  rxPkFromHL
attr title  "packet bytes from higher layer, sum(packetBytes)"
scalar Topo.s1.etherMAC[5] 	rxPausePkUnits:count 	0
attr interpolationmode  none
attr title  "pause units received, count"
scalar Topo.s1.etherMAC[5] 	rxPausePkUnits:sum 	0
attr interpolationmode  none
attr title  "pause units received, sum"
scalar Topo.s1.etherMAC[5] 	txPausePkUnits:count 	0
attr interpolationmode  none
attr title  "pause units sent, count"
scalar Topo.s1.etherMAC[5] 	txPausePkUnits:sum 	0
attr interpolationmode  none
attr title  "pause units sent, sum"
scalar Topo.s1.etherMAC[5] 	rxPkOk:count 	2
attr interpolationmode  none
attr source  rxPkOk
attr title  "packets received OK, count"
scalar Topo.s1.etherMAC[5] 	rxPkOk:sum(packetBytes) 	128
attr interpolationmode  none
attr source  rxPkOk
attr title  "packets received OK, sum(packetBytes)"
scalar Topo.s1.etherMAC[5] 	txPk:count 	978
attr interpolationmode  none
attr source  txPk
attr title  "packets transmitted, count"
scalar Topo.s1.etherMAC[5] 	txPk:sum(packetBytes) 	646560
attr interpolationmode  none
attr source  txPk
attr title  "packets transmitted, sum(packetBytes)"
scalar Topo.s1.etherMAC[5] 	backoff:count 	0
attr interpolationmode  none
attr title  "backoff, count"
scalar Topo.s1.etherMAC[5] 	collision:count 	0
attr interpolationmode  none
attr title  "collision, count"
scalar Topo.s1.etherMAC[5] 	passedUpPk:count 	2
attr interpolationmode  none
attr source  packetSentToUpper
attr title  "packets passed to higher layer, count"
scalar Topo.s1.etherMAC[5] 	passedUpPk:sum(packetBytes) 	128
attr interpolationmode  none
attr source  packetSentToUpper
attr title  "packets passed to higher layer, sum(packetBytes)"
scalar Topo.s1.etherMAC[6] 	"simulated time" 	94.990056719999
scalar Topo.s1.etherMAC[6] 	full-duplex 	1
scalar Topo.s1.etherMAC[6] 	"frames/sec sent" 	5.0321056382669
scalar Topo.s1.etherMAC[6] 	"frames/sec rcvd" 	0.010527417653278
scalar Topo.s1.etherMAC[6] 	"bits/sec sent" 	51757.838343988
scalar Topo.s1.etherMAC[6] 	"bits/sec rcvd" 	5.3900378384784
scalar Topo.s1.etherMAC[6] 	"rx channel idle (%)" 	99.999993936207
scalar Topo.s1.etherMAC[6] 	"rx channel utilization (%)" 	6.0637925682882e-06
scalar Topo.s1.etherMAC[6] 	"rx channel collision (%)" 	0
scalar Topo.s1.etherMAC[6] 	collisions 	0
scalar Topo.s1.etherMAC[6] 	backoffs 	0
scalar Topo.s1.etherMAC[6] 	droppedPkNotForUs:count 	0
attr interpolationmode  none
attr source  dropPkNotForUs
attr title  "packets dropped/not for us, count"
scalar Topo.s1.etherMAC[6] 	droppedPkNotForUs:sum(packetBytes) 	0
attr interpolationmode  none
attr source  dropPkNotForUs
attr title  "packets dropped/not for us, sum(packetBytes)"
scalar Topo.s1.etherMAC[6] 	droppedPkIfaceDown:count 	0
attr interpolationmode  none
attr source  dropPkIfaceDown
attr title  "packets dropped/interface down, count"
scalar Topo.s1.etherMAC[6] 	droppedPkIfaceDown:sum(packetBytes) 	0
attr interpolationmode  none
attr source  dropPkIfaceDown
attr title  "packets dropped/interface down, sum(packetBytes)"
scalar Topo.s1.etherMAC[6] 	droppedPkBitError:count 	0
attr interpolationmode  none
attr source  dropPkBitError
attr title  "packets dropped/bit error, count"
scalar Topo.s1.etherMAC[6] 	droppedPkBitError:sum(packetBytes) 	0
attr interpolationmode  none
attr source  dropPkBitError
attr title  "packets dropped/bit error, sum(packetBytes)"
scalar Topo.s1.etherMAC[6] 	rxPkFromHL:count 	478
attr interpolationmode  none
attr source  rxPkFromHL
attr title  "packet bytes from higher layer, count"
scalar Topo.s1.etherMAC[6] 	rxPkFromHL:sum(packetBytes) 	614560
attr interpolationmode  none
attr source  rxPkFromHL
attr title  "packet bytes from higher layer, sum(packetBytes)"
scalar Topo.s1.etherMAC[6] 	rxPausePkUnits:count 	0
attr interpolationmode  none
attr title  "pause units received, count"
scalar Topo.s1.etherMAC[6] 	rxPausePkUnits:sum 	0
attr interpolationmode  none
attr title  "pause units received, sum"
scalar Topo.s1.etherMAC[6] 	txPausePkUnits:count 	0
attr interpolationmode  none
attr title  "pause units sent, count"
scalar Topo.s1.etherMAC[6] 	txPausePkUnits:sum 	0
attr interpolationmode  none
attr title  "pause units sent, sum"
scalar Topo.s1.etherMAC[6] 	rxPkOk:count 	1
attr interpolationmode  none
attr source  rxPkOk
attr title  "packets received OK, count"
scalar Topo.s1.etherMAC[6] 	rxPkOk:sum(packetBytes) 	64
attr interpolationmode  none
attr source  rxPkOk
attr title  "packets received OK, sum(packetBytes)"
scalar Topo.s1.etherMAC[6] 	txPk:count 	478
attr interpolationmode  none
attr source  txPk
attr title  "packets transmitted, count"
scalar Topo.s1.etherMAC[6] 	txPk:sum(packetBytes) 	614560
attr interpolationmode  none
attr source  txPk
attr title  "packets transmitted, sum(packetBytes)"
scalar Topo.s1.etherMAC[6] 	backoff:count 	0
attr interpolationmode  none
attr title  "backoff, count"
scalar Topo.s1.etherMAC[6] 	collision:count 	0
attr interpolationmode  none
attr title  "collision, count"
scalar Topo.s1.etherMAC[6] 	passedUpPk:count 	1
attr interpolationmode  none
attr source  packetSentToUpper
attr title  "packets passed to higher layer, count"
scalar Topo.s1.etherMAC[6] 	passedUpPk:sum(packetBytes) 	64
attr interpolationmode  none
attr source  packetSentToUpper
attr title  "packets passed to higher layer, sum(packetBytes)"
scalar Topo.s1.open_Flow_Processing 	droppedPkt:last 	-nan
attr source  droppedPkt
scalar Topo.controller.networkLayer.arp 	failedARPResolution:count 	0
attr title  "ARP failed resolutions, count"
scalar Topo.controller.networkLayer.arp 	completedARPResolution:count 	1
attr title  "ARP completed resolutions, count"
scalar Topo.controller.networkLayer.arp 	initiatedARPResolution:count 	0
attr title  "ARP initiated resolutions, count"
scalar Topo.controller.networkLayer.arp 	sentReply:count 	1
attr title  "ARP replies sent, count"
scalar Topo.controller.networkLayer.arp 	sentReq:count 	0
attr title  "ARP request sent, count"
scalar Topo.controller.lo0.lo 	droppedPkBitError:count 	0
attr interpolationmode  none
attr source  dropPkBitError
attr title  "packets dropped/bit error, count"
scalar Topo.controller.lo0.lo 	droppedPkBitError:sum(packetBytes) 	0
attr interpolationmode  none
attr source  dropPkBitError
attr title  "packets dropped/bit error, sum(packetBytes)"
scalar Topo.controller.lo0.lo 	rcvdPkFromHL:count 	0
attr interpolationmode  none
attr source  packetReceivedFromUpper
attr title  "packets received from higher layer, count"
scalar Topo.controller.lo0.lo 	rcvdPkFromHL:sum(packetBytes) 	0
attr interpolationmode  none
attr source  packetReceivedFromUpper
attr title  "packets received from higher layer, sum(packetBytes)"
scalar Topo.controller.lo0.lo 	passedUpPk:count 	0
attr interpolationmode  none
attr source  packetSentToUpper
attr title  "packets passed to higher layer, count"
scalar Topo.controller.lo0.lo 	passedUpPk:sum(packetBytes) 	0
attr interpolationmode  none
attr source  packetSentToUpper
attr title  "packets passed to higher layer, sum(packetBytes)"
scalar Topo.controller.eth[0].mac 	"simulated time" 	94.990056719999
scalar Topo.controller.eth[0].mac 	full-duplex 	1
scalar Topo.controller.eth[0].mac 	"frames/sec sent" 	14.054102567126
scalar Topo.controller.eth[0].mac 	"frames/sec rcvd" 	14.064629984779
scalar Topo.controller.eth[0].mac 	"bits/sec sent" 	10628.565082091
scalar Topo.controller.eth[0].mac 	"bits/sec rcvd" 	10633.702461906
scalar Topo.controller.eth[0].mac 	"rx channel idle (%)" 	99.988466161219
scalar Topo.controller.eth[0].mac 	"rx channel utilization (%)" 	0.011533838780931
scalar Topo.controller.eth[0].mac 	droppedPkNotForUs:count 	0
attr interpolationmode  none
attr source  dropPkNotForUs
attr title  "packets dropped/not for us, count"
scalar Topo.controller.eth[0].mac 	droppedPkNotForUs:sum(packetBytes) 	0
attr interpolationmode  none
attr source  dropPkNotForUs
attr title  "packets dropped/not for us, sum(packetBytes)"
scalar Topo.controller.eth[0].mac 	droppedPkIfaceDown:count 	0
attr interpolationmode  none
attr source  dropPkIfaceDown
attr title  "packets dropped/interface down, count"
scalar Topo.controller.eth[0].mac 	droppedPkIfaceDown:sum(packetBytes) 	0
attr interpolationmode  none
attr source  dropPkIfaceDown
attr title  "packets dropped/interface down, sum(packetBytes)"
scalar Topo.controller.eth[0].mac 	droppedPkBitError:count 	0
attr interpolationmode  none
attr source  dropPkBitError
attr title  "packets dropped/bit error, count"
scalar Topo.controller.eth[0].mac 	droppedPkBitError:sum(packetBytes) 	0
attr interpolationmode  none
attr source  dropPkBitError
attr title  "packets dropped/bit error, sum(packetBytes)"
scalar Topo.controller.eth[0].mac 	rxPkFromHL:count 	1335
attr interpolationmode  none
attr source  rxPkFromHL
attr title  "packet bytes from higher layer, count"
scalar Topo.controller.eth[0].mac 	rxPkFromHL:sum(packetBytes) 	126201
attr interpolationmode  none
attr source  rxPkFromHL
attr title  "packet bytes from higher layer, sum(packetBytes)"
scalar Topo.controller.eth[0].mac 	rxPausePkUnits:count 	0
attr interpolationmode  none
attr title  "pause units received, count"
scalar Topo.controller.eth[0].mac 	rxPausePkUnits:sum 	0
attr interpolationmode  none
attr title  "pause units received, sum"
scalar Topo.controller.eth[0].mac 	txPausePkUnits:count 	0
attr interpolationmode  none
attr title  "pause units sent, count"
scalar Topo.controller.eth[0].mac 	txPausePkUnits:sum 	0
attr interpolationmode  none
attr title  "pause units sent, sum"
scalar Topo.controller.eth[0].mac 	rxPkOk:count 	1336
attr interpolationmode  none
attr source  rxPkOk
attr title  "packets received OK, count"
scalar Topo.controller.eth[0].mac 	rxPkOk:sum(packetBytes) 	126262
attr interpolationmode  none
attr source  rxPkOk
attr title  "packets received OK, sum(packetBytes)"
scalar Topo.controller.eth[0].mac 	txPk:count 	1335
attr interpolationmode  none
attr source  txPk
attr title  "packets transmitted, count"
scalar Topo.controller.eth[0].mac 	txPk:sum(packetBytes) 	126201
attr interpolationmode  none
attr source  txPk
attr title  "packets transmitted, sum(packetBytes)"
scalar Topo.controller.eth[0].mac 	passedUpPk:count 	1336
attr interpolationmode  none
attr source  packetSentToUpper
attr title  "packets passed to higher layer, count"
scalar Topo.controller.eth[0].mac 	passedUpPk:sum(packetBytes) 	126262
attr interpolationmode  none
attr source  packetSentToUpper
attr title  "packets passed to higher layer, sum(packetBytes)"
scalar Topo.controller.eth[0].encap 	pauseSent:count 	0
attr title  "pause sent, count"
scalar Topo.controller.eth[0].encap 	pauseSent:sum 	0
attr title  "pause sent, sum"
scalar Topo.controller.eth[0].encap 	decapPk:count 	1336
attr interpolationmode  none
attr source  decapPk
attr title  "packets decapsulated, count"
scalar Topo.controller.eth[0].encap 	decapPk:sum(packetBytes) 	96896
attr interpolationmode  none
attr source  decapPk
attr title  "packets decapsulated, sum(packetBytes)"
scalar Topo.controller.eth[0].encap 	encapPk:count 	1335
attr interpolationmode  none
attr source  encapPk
attr title  "packets encapsulated, count"
scalar Topo.controller.eth[0].encap 	encapPk:sum(packetBytes) 	97260
attr interpolationmode  none
attr source  encapPk
attr title  "packets encapsulated, sum(packetBytes)"
statistic Topo.controller.entropy 	entropy:histogram
field count 3
field mean -12.113838608209
field stddev 0.0060061211018901
field sum -36.341515824627
field sqrsum 440.23532962418
field min -12.117306243848
field max -12.106903336932
attr source  entropy
attr title  "Entropy Value, histogram"
bin	-INF	0
bin	-12.122507697305	0
bin	-12.121814170178	0
bin	-12.12112064305	0
bin	-12.120427115922	0
bin	-12.119733588795	0
bin	-12.119040061667	0
bin	-12.118346534539	0
bin	-12.117653007411	2
bin	-12.116959480284	0
bin	-12.116265953156	0
bin	-12.115572426028	0
bin	-12.1148788989	0
bin	-12.114185371773	0
bin	-12.113491844645	0
bin	-12.112798317517	0
bin	-12.11210479039	0
bin	-12.111411263262	0
bin	-12.110717736134	0
bin	-12.110024209006	0
bin	-12.109330681879	0
bin	-12.108637154751	0
bin	-12.107943627623	0
bin	-12.107250100496	1
bin	-12.106556573368	0
bin	-12.10586304624	0
bin	-12.105169519112	0
bin	-12.104475991985	0
bin	-12.103782464857	0
bin	-12.103088937729	0
bin	-12.102395410602	0
bin	-12.101701883474	0
