version 2
run seapp-attacks-0-20170203-10:39:20-15615
attr ber 0
attr configname seapp-attacks
attr datetime 20170203-10:39:20
attr experiment seapp-attacks
attr inifile omnetpp.ini
attr iterationvars $ber=0
attr iterationvars2 "$ber=0, $repetition=0"
attr measurement $ber=0
attr network scenario
attr processid 15615
attr repetition 0
attr replication #0
attr resultdir results
attr runnumber 0
attr seedset 0

scalar . 	ber 	0
scalar scenario.client.networkLayer.arp 	failedARPResolution:count 	0
attr title  "ARP failed resolutions, count"
scalar scenario.client.networkLayer.arp 	completedARPResolution:count 	0
attr title  "ARP completed resolutions, count"
scalar scenario.client.networkLayer.arp 	initiatedARPResolution:count 	0
attr title  "ARP initiated resolutions, count"
scalar scenario.client.networkLayer.arp 	sentReply:count 	0
attr title  "ARP replies sent, count"
scalar scenario.client.networkLayer.arp 	sentReq:count 	0
attr title  "ARP request sent, count"
scalar scenario.client.lo0.lo 	droppedPkBitError:count 	0
attr interpolationmode  none
attr source  dropPkBitError
attr title  "packets dropped/bit error, count"
scalar scenario.client.lo0.lo 	droppedPkBitError:sum(packetBytes) 	0
attr interpolationmode  none
attr source  dropPkBitError
attr title  "packets dropped/bit error, sum(packetBytes)"
scalar scenario.client.lo0.lo 	rcvdPkFromHL:count 	0
attr interpolationmode  none
attr source  packetReceivedFromUpper
attr title  "packets received from higher layer, count"
scalar scenario.client.lo0.lo 	rcvdPkFromHL:sum(packetBytes) 	0
attr interpolationmode  none
attr source  packetReceivedFromUpper
attr title  "packets received from higher layer, sum(packetBytes)"
scalar scenario.client.lo0.lo 	passedUpPk:count 	0
attr interpolationmode  none
attr source  packetSentToUpper
attr title  "packets passed to higher layer, count"
scalar scenario.client.lo0.lo 	passedUpPk:sum(packetBytes) 	0
attr interpolationmode  none
attr source  packetSentToUpper
attr title  "packets passed to higher layer, sum(packetBytes)"
scalar scenario.client.ppp[0].queue 	queueLength:max 	44
attr interpolationmode  sample-hold
attr title  "queue length, max"
scalar scenario.client.ppp[0].queue 	queueLength:timeavg 	43.308723067726
attr interpolationmode  sample-hold
attr title  "queue length, timeavg"
statistic scenario.client.ppp[0].queue 	queueingTime:histogram
field count 1516
field mean 0.051090374520463
field stddev 0.0075325804322255
field sum 77.453007773022
field sqrsum 4.0430639233314
field min 0
field max 0.052726070002
attr interpolationmode  none
attr title  "queueing time, histogram"
bin	-INF	0
bin	-0.026363035001	0
bin	-0.022847963667533	0
bin	-0.019332892334067	0
bin	-0.0158178210006	0
bin	-0.012302749667133	0
bin	-0.0087876783336667	0
bin	-0.0052726070002	0
bin	-0.0017575356667333	6
bin	0.0017575356667333	6
bin	0.0052726070002	6
bin	0.0087876783336667	6
bin	0.012302749667133	6
bin	0.0158178210006	6
bin	0.019332892334067	6
bin	0.022847963667533	6
bin	0.026363035001	4
bin	0.029878106334467	6
bin	0.033393177667933	6
bin	0.0369082490014	6
bin	0.040423320334867	6
bin	0.043938391668333	6
bin	0.0474534630018	6
bin	0.050968534335267	1428
bin	0.054483605668733	0
bin	0.0579986770022	0
bin	0.061513748335667	0
bin	0.065028819669133	0
bin	0.0685438910026	0
bin	0.072058962336067	0
bin	0.075574033669533	0
bin	0.079089105003	0
scalar scenario.client.ppp[0].queue 	dropPk:count 	0
attr interpolationmode  none
attr source  dropPkByQueue
attr title  "dropped packets, count"
scalar scenario.client.ppp[0].queue 	dropPk:sum(packetBytes) 	0
attr interpolationmode  none
attr source  dropPkByQueue
attr title  "dropped packets, sum(packetBytes)"
scalar scenario.client.ppp[0].queue 	rcvdPk:count 	1559
attr interpolationmode  none
attr title  "received packets, count"
scalar scenario.client.ppp[0].queue 	rcvdPk:sum(packetBytes) 	2323128
attr interpolationmode  none
attr title  "received packets, sum(packetBytes)"
scalar scenario.client.ppp[0].ppp 	txState:timeavg 	0.99995554819078
attr interpolationmode  sample-hold
attr title  "tx state, timeavg"
scalar scenario.client.ppp[0].ppp 	droppedPkIfaceDown:count 	0
attr interpolationmode  none
attr source  dropPkIfaceDown
attr title  "packets dropped/interface down, count"
scalar scenario.client.ppp[0].ppp 	droppedPkIfaceDown:sum(packetBytes) 	0
attr interpolationmode  none
attr source  dropPkIfaceDown
attr title  "packets dropped/interface down, sum(packetBytes)"
scalar scenario.client.ppp[0].ppp 	droppedPkBitError:count 	0
attr interpolationmode  none
attr source  dropPkBitError
attr title  "packets dropped/bit error, count"
scalar scenario.client.ppp[0].ppp 	droppedPkBitError:sum(packetBytes) 	0
attr interpolationmode  none
attr source  dropPkBitError
attr title  "packets dropped/bit error, sum(packetBytes)"
scalar scenario.client.ppp[0].ppp 	rxPkOk:count 	1513
attr interpolationmode  none
attr source  rxPkOk
attr title  "packets received OK, count"
scalar scenario.client.ppp[0].ppp 	rxPkOk:sum(packetBytes) 	71115
attr interpolationmode  none
attr source  rxPkOk
attr title  "packets received OK, sum(packetBytes)"
scalar scenario.client.ppp[0].ppp 	rcvdPkFromHL:count 	1516
attr interpolationmode  none
attr source  packetReceivedFromUpper
attr title  "packets received from higher layer, count"
scalar scenario.client.ppp[0].ppp 	rcvdPkFromHL:sum(packetBytes) 	2258972
attr interpolationmode  none
attr source  packetReceivedFromUpper
attr title  "packets received from higher layer, sum(packetBytes)"
scalar scenario.client.ppp[0].ppp 	passedUpPk:count 	1513
attr interpolationmode  none
attr source  packetSentToUpper
attr title  "packets passed to higher layer, count"
scalar scenario.client.ppp[0].ppp 	passedUpPk:sum(packetBytes) 	60524
attr interpolationmode  none
attr source  packetSentToUpper
attr title  "packets passed to higher layer, sum(packetBytes)"
scalar scenario.client.ppp[0].ppp 	txPk:count 	1516
attr interpolationmode  none
attr source  packetSentToLower
attr title  "packets transmitted, count"
scalar scenario.client.ppp[0].ppp 	txPk:sum(packetBytes) 	2269584
attr interpolationmode  none
attr source  packetSentToLower
attr title  "packets transmitted, sum(packetBytes)"
scalar scenario.client.tcpApp[0] 	bytesRcvd 	0
scalar scenario.client.tcpApp[0] 	bytesSent 	104857600
scalar scenario.client.tcpApp[0] 	rcvdPk:count 	0
attr interpolationmode  none
attr source  rcvdPk
attr title  "packets received, count"
scalar scenario.client.tcpApp[0] 	rcvdPk:sum(packetBytes) 	0
attr interpolationmode  none
attr source  rcvdPk
attr title  "packets received, sum(packetBytes)"
statistic scenario.client.tcpApp[0] 	endToEndDelay:histogram
field count 0
field mean -nan
field stddev -nan
field sum 0
field sqrsum 0
field min -nan
field max -nan
attr interpolationmode  none
attr source  messageAge(rcvdPk)
attr title  "end-to-end delay, histogram"
attr unit  s
bin	-INF	0
bin	-0.5	0
bin	-0.46666666666667	0
bin	-0.43333333333333	0
bin	-0.4	0
bin	-0.36666666666667	0
bin	-0.33333333333333	0
bin	-0.3	0
bin	-0.26666666666667	0
bin	-0.23333333333333	0
bin	-0.2	0
bin	-0.16666666666667	0
bin	-0.13333333333333	0
bin	-0.1	0
bin	-0.066666666666667	0
bin	-0.033333333333333	0
bin	0	0
bin	0.033333333333333	0
bin	0.066666666666667	0
bin	0.1	0
bin	0.13333333333333	0
bin	0.16666666666667	0
bin	0.2	0
bin	0.23333333333333	0
bin	0.26666666666667	0
bin	0.3	0
bin	0.33333333333333	0
bin	0.36666666666667	0
bin	0.4	0
bin	0.43333333333333	0
bin	0.46666666666667	0
bin	0.5	0
scalar scenario.client.tcpApp[0] 	sentPk:count 	1
attr interpolationmode  none
attr source  sentPk
attr title  "packets sent, count"
scalar scenario.client.tcpApp[0] 	sentPk:sum(packetBytes) 	104857600
attr interpolationmode  none
attr source  sentPk
attr title  "packets sent, sum(packetBytes)"
scalar scenario.server.networkLayer.arp 	failedARPResolution:count 	0
attr title  "ARP failed resolutions, count"
scalar scenario.server.networkLayer.arp 	completedARPResolution:count 	0
attr title  "ARP completed resolutions, count"
scalar scenario.server.networkLayer.arp 	initiatedARPResolution:count 	0
attr title  "ARP initiated resolutions, count"
scalar scenario.server.networkLayer.arp 	sentReply:count 	0
attr title  "ARP replies sent, count"
scalar scenario.server.networkLayer.arp 	sentReq:count 	0
attr title  "ARP request sent, count"
scalar scenario.server.lo0.lo 	droppedPkBitError:count 	0
attr interpolationmode  none
attr source  dropPkBitError
attr title  "packets dropped/bit error, count"
scalar scenario.server.lo0.lo 	droppedPkBitError:sum(packetBytes) 	0
attr interpolationmode  none
attr source  dropPkBitError
attr title  "packets dropped/bit error, sum(packetBytes)"
scalar scenario.server.lo0.lo 	rcvdPkFromHL:count 	0
attr interpolationmode  none
attr source  packetReceivedFromUpper
attr title  "packets received from higher layer, count"
scalar scenario.server.lo0.lo 	rcvdPkFromHL:sum(packetBytes) 	0
attr interpolationmode  none
attr source  packetReceivedFromUpper
attr title  "packets received from higher layer, sum(packetBytes)"
scalar scenario.server.lo0.lo 	passedUpPk:count 	0
attr interpolationmode  none
attr source  packetSentToUpper
attr title  "packets passed to higher layer, count"
scalar scenario.server.lo0.lo 	passedUpPk:sum(packetBytes) 	0
attr interpolationmode  none
attr source  packetSentToUpper
attr title  "packets passed to higher layer, sum(packetBytes)"
scalar scenario.server.ppp[0].outputHook[0] 	duration 	1.814549224995
scalar scenario.server.ppp[0].outputHook[0] 	"total packets" 	1513
scalar scenario.server.ppp[0].outputHook[0] 	"total bits" 	484192
scalar scenario.server.ppp[0].outputHook[0] 	"avg throughput (bit/s)" 	266838.72409211
scalar scenario.server.ppp[0].outputHook[0] 	"avg packets/s" 	833.81590268193
scalar scenario.server.ppp[0].queue 	queueLength:max 	0
attr interpolationmode  sample-hold
attr title  "queue length, max"
scalar scenario.server.ppp[0].queue 	queueLength:timeavg 	0
attr interpolationmode  sample-hold
attr title  "queue length, timeavg"
statistic scenario.server.ppp[0].queue 	queueingTime:histogram
field count 1513
field mean 0
field stddev 0
field sum 0
field sqrsum 0
field min 0
field max 0
attr interpolationmode  none
attr title  "queueing time, histogram"
bin	-INF	0
bin	-0.5	0
bin	-0.46666666666667	0
bin	-0.43333333333333	0
bin	-0.4	0
bin	-0.36666666666667	0
bin	-0.33333333333333	0
bin	-0.3	0
bin	-0.26666666666667	0
bin	-0.23333333333333	0
bin	-0.2	0
bin	-0.16666666666667	0
bin	-0.13333333333333	0
bin	-0.1	0
bin	-0.066666666666667	0
bin	-0.033333333333333	0
bin	0	1513
bin	0.033333333333333	0
bin	0.066666666666667	0
bin	0.1	0
bin	0.13333333333333	0
bin	0.16666666666667	0
bin	0.2	0
bin	0.23333333333333	0
bin	0.26666666666667	0
bin	0.3	0
bin	0.33333333333333	0
bin	0.36666666666667	0
bin	0.4	0
bin	0.43333333333333	0
bin	0.46666666666667	0
bin	0.5	0
scalar scenario.server.ppp[0].queue 	dropPk:count 	0
attr interpolationmode  none
attr source  dropPkByQueue
attr title  "dropped packets, count"
scalar scenario.server.ppp[0].queue 	dropPk:sum(packetBytes) 	0
attr interpolationmode  none
attr source  dropPkByQueue
attr title  "dropped packets, sum(packetBytes)"
scalar scenario.server.ppp[0].queue 	rcvdPk:count 	1513
attr interpolationmode  none
attr title  "received packets, count"
scalar scenario.server.ppp[0].queue 	rcvdPk:sum(packetBytes) 	60524
attr interpolationmode  none
attr title  "received packets, sum(packetBytes)"
scalar scenario.server.ppp[0].ppp 	txState:timeavg 	0.031353241464229
attr interpolationmode  sample-hold
attr title  "tx state, timeavg"
scalar scenario.server.ppp[0].ppp 	droppedPkIfaceDown:count 	0
attr interpolationmode  none
attr source  dropPkIfaceDown
attr title  "packets dropped/interface down, count"
scalar scenario.server.ppp[0].ppp 	droppedPkIfaceDown:sum(packetBytes) 	0
attr interpolationmode  none
attr source  dropPkIfaceDown
attr title  "packets dropped/interface down, sum(packetBytes)"
scalar scenario.server.ppp[0].ppp 	droppedPkBitError:count 	0
attr interpolationmode  none
attr source  dropPkBitError
attr title  "packets dropped/bit error, count"
scalar scenario.server.ppp[0].ppp 	droppedPkBitError:sum(packetBytes) 	0
attr interpolationmode  none
attr source  dropPkBitError
attr title  "packets dropped/bit error, sum(packetBytes)"
scalar scenario.server.ppp[0].ppp 	rxPkOk:count 	1515
attr interpolationmode  none
attr source  rxPkOk
attr title  "packets received OK, count"
scalar scenario.server.ppp[0].ppp 	rxPkOk:sum(packetBytes) 	2268085
attr interpolationmode  none
attr source  rxPkOk
attr title  "packets received OK, sum(packetBytes)"
scalar scenario.server.ppp[0].ppp 	rcvdPkFromHL:count 	1513
attr interpolationmode  none
attr source  packetReceivedFromUpper
attr title  "packets received from higher layer, count"
scalar scenario.server.ppp[0].ppp 	rcvdPkFromHL:sum(packetBytes) 	60524
attr interpolationmode  none
attr source  packetReceivedFromUpper
attr title  "packets received from higher layer, sum(packetBytes)"
scalar scenario.server.ppp[0].ppp 	passedUpPk:count 	1515
attr interpolationmode  none
attr source  packetSentToUpper
attr title  "packets passed to higher layer, count"
scalar scenario.server.ppp[0].ppp 	passedUpPk:sum(packetBytes) 	2257480
attr interpolationmode  none
attr source  packetSentToUpper
attr title  "packets passed to higher layer, sum(packetBytes)"
scalar scenario.server.ppp[0].ppp 	txPk:count 	1513
attr interpolationmode  none
attr source  packetSentToLower
attr title  "packets transmitted, count"
scalar scenario.server.ppp[0].ppp 	txPk:sum(packetBytes) 	71115
attr interpolationmode  none
attr source  packetSentToLower
attr title  "packets transmitted, sum(packetBytes)"
scalar scenario.server.tcpApp[0] 	rcvdPk:count 	1512
attr interpolationmode  none
attr source  rcvdPk
attr title  "packets received, count"
scalar scenario.server.tcpApp[0] 	rcvdPk:sum(packetBytes) 	2195424
attr interpolationmode  none
attr source  rcvdPk
attr title  "packets received, sum(packetBytes)"
statistic scenario.server.tcpApp[0] 	endToEndDelay:histogram
field count 1512
field mean 0
field stddev 0
field sum 0
field sqrsum 0
field min 0
field max 0
attr interpolationmode  none
attr source  messageAge(rcvdPk)
attr title  "end-to-end delay, histogram"
attr unit  s
bin	-INF	0
bin	-0.5	0
bin	-0.46666666666667	0
bin	-0.43333333333333	0
bin	-0.4	0
bin	-0.36666666666667	0
bin	-0.33333333333333	0
bin	-0.3	0
bin	-0.26666666666667	0
bin	-0.23333333333333	0
bin	-0.2	0
bin	-0.16666666666667	0
bin	-0.13333333333333	0
bin	-0.1	0
bin	-0.066666666666667	0
bin	-0.033333333333333	0
bin	0	1512
bin	0.033333333333333	0
bin	0.066666666666667	0
bin	0.1	0
bin	0.13333333333333	0
bin	0.16666666666667	0
bin	0.2	0
bin	0.23333333333333	0
bin	0.26666666666667	0
bin	0.3	0
bin	0.33333333333333	0
bin	0.36666666666667	0
bin	0.4	0
bin	0.43333333333333	0
bin	0.46666666666667	0
bin	0.5	0
