version 2
run attack_dc-0-20161209-11:42:02-11449
attr configname attack_dc
attr datetime 20161209-11:42:02
attr experiment attack_dc
attr inifile omnetpp.ini
attr iterationvars ""
attr iterationvars2 $repetition=0
attr measurement ""
attr network Topo
attr processid 11449
attr repetition 0
attr replication #0
attr resultdir results
attr runnumber 0
attr seedset 0

scalar Topo.s1.networkLayer.arp 	failedARPResolution:count 	0
attr title  "ARP failed resolutions, count"
scalar Topo.s1.networkLayer.arp 	completedARPResolution:count 	1
attr title  "ARP completed resolutions, count"
scalar Topo.s1.networkLayer.arp 	initiatedARPResolution:count 	1
attr title  "ARP initiated resolutions, count"
scalar Topo.s1.networkLayer.arp 	sentReply:count 	0
attr title  "ARP replies sent, count"
scalar Topo.s1.networkLayer.arp 	sentReq:count 	1
attr title  "ARP request sent, count"
scalar Topo.s1.eth[0].mac 	"simulated time" 	26.000010456
scalar Topo.s1.eth[0].mac 	full-duplex 	1
scalar Topo.s1.eth[0].mac 	"frames/sec sent" 	0.57692284491134
scalar Topo.s1.eth[0].mac 	"frames/sec rcvd" 	0.53846132191725
scalar Topo.s1.eth[0].mac 	"bits/sec sent" 	295.3844965946
scalar Topo.s1.eth[0].mac 	"bits/sec rcvd" 	275.69219682163
scalar Topo.s1.eth[0].mac 	"rx channel idle (%)" 	99.999968984628
scalar Topo.s1.eth[0].mac 	"rx channel utilization (%)" 	3.1015372142433e-05
scalar Topo.s1.eth[0].mac 	droppedPkNotForUs:count 	0
attr interpolationmode  none
attr source  dropPkNotForUs
attr title  "packets dropped/not for us, count"
scalar Topo.s1.eth[0].mac 	droppedPkNotForUs:sum(packetBytes) 	0
attr interpolationmode  none
attr source  dropPkNotForUs
attr title  "packets dropped/not for us, sum(packetBytes)"
scalar Topo.s1.eth[0].mac 	droppedPkIfaceDown:count 	0
attr interpolationmode  none
attr source  dropPkIfaceDown
attr title  "packets dropped/interface down, count"
scalar Topo.s1.eth[0].mac 	droppedPkIfaceDown:sum(packetBytes) 	0
attr interpolationmode  none
attr source  dropPkIfaceDown
attr title  "packets dropped/interface down, sum(packetBytes)"
scalar Topo.s1.eth[0].mac 	droppedPkBitError:count 	0
attr interpolationmode  none
attr source  dropPkBitError
attr title  "packets dropped/bit error, count"
scalar Topo.s1.eth[0].mac 	droppedPkBitError:sum(packetBytes) 	0
attr interpolationmode  none
attr source  dropPkBitError
attr title  "packets dropped/bit error, sum(packetBytes)"
scalar Topo.s1.eth[0].mac 	rxPkFromHL:count 	15
attr interpolationmode  none
attr source  rxPkFromHL
attr title  "packet bytes from higher layer, count"
scalar Topo.s1.eth[0].mac 	rxPkFromHL:sum(packetBytes) 	960
attr interpolationmode  none
attr source  rxPkFromHL
attr title  "packet bytes from higher layer, sum(packetBytes)"
scalar Topo.s1.eth[0].mac 	rxPausePkUnits:count 	0
attr interpolationmode  none
attr title  "pause units received, count"
scalar Topo.s1.eth[0].mac 	rxPausePkUnits:sum 	0
attr interpolationmode  none
attr title  "pause units received, sum"
scalar Topo.s1.eth[0].mac 	txPausePkUnits:count 	0
attr interpolationmode  none
attr title  "pause units sent, count"
scalar Topo.s1.eth[0].mac 	txPausePkUnits:sum 	0
attr interpolationmode  none
attr title  "pause units sent, sum"
scalar Topo.s1.eth[0].mac 	rxPkOk:count 	14
attr interpolationmode  none
attr source  rxPkOk
attr title  "packets received OK, count"
scalar Topo.s1.eth[0].mac 	rxPkOk:sum(packetBytes) 	896
attr interpolationmode  none
attr source  rxPkOk
attr title  "packets received OK, sum(packetBytes)"
scalar Topo.s1.eth[0].mac 	txPk:count 	15
attr interpolationmode  none
attr source  txPk
attr title  "packets transmitted, count"
scalar Topo.s1.eth[0].mac 	txPk:sum(packetBytes) 	960
attr interpolationmode  none
attr source  txPk
attr title  "packets transmitted, sum(packetBytes)"
scalar Topo.s1.eth[0].mac 	passedUpPk:count 	14
attr interpolationmode  none
attr source  packetSentToUpper
attr title  "packets passed to higher layer, count"
scalar Topo.s1.eth[0].mac 	passedUpPk:sum(packetBytes) 	896
attr interpolationmode  none
attr source  packetSentToUpper
attr title  "packets passed to higher layer, sum(packetBytes)"
scalar Topo.s1.eth[0].encap 	pauseSent:count 	0
attr title  "pause sent, count"
scalar Topo.s1.eth[0].encap 	pauseSent:sum 	0
attr title  "pause sent, sum"
scalar Topo.s1.eth[0].encap 	decapPk:count 	14
attr interpolationmode  none
attr source  decapPk
attr title  "packets decapsulated, count"
scalar Topo.s1.eth[0].encap 	decapPk:sum(packetBytes) 	563
attr interpolationmode  none
attr source  decapPk
attr title  "packets decapsulated, sum(packetBytes)"
scalar Topo.s1.eth[0].encap 	encapPk:count 	15
attr interpolationmode  none
attr source  encapPk
attr title  "packets encapsulated, count"
scalar Topo.s1.eth[0].encap 	encapPk:sum(packetBytes) 	597
attr interpolationmode  none
attr source  encapPk
attr title  "packets encapsulated, sum(packetBytes)"
scalar Topo.s1.etherMAC[0] 	"simulated time" 	26.000010456
scalar Topo.s1.etherMAC[0] 	full-duplex 	1
scalar Topo.s1.etherMAC[0] 	"frames/sec sent" 	0.84615350586996
scalar Topo.s1.etherMAC[0] 	"frames/sec rcvd" 	0.76923045988178
scalar Topo.s1.etherMAC[0] 	"bits/sec sent" 	433.23059500542
scalar Topo.s1.etherMAC[0] 	"bits/sec rcvd" 	393.84599545947
scalar Topo.s1.etherMAC[0] 	"rx channel idle (%)" 	99.999955692326
scalar Topo.s1.etherMAC[0] 	"rx channel utilization (%)" 	4.4307674489191e-05
scalar Topo.s1.etherMAC[0] 	"rx channel collision (%)" 	0
scalar Topo.s1.etherMAC[0] 	collisions 	0
scalar Topo.s1.etherMAC[0] 	backoffs 	0
scalar Topo.s1.etherMAC[0] 	droppedPkNotForUs:count 	0
attr interpolationmode  none
attr source  dropPkNotForUs
attr title  "packets dropped/not for us, count"
scalar Topo.s1.etherMAC[0] 	droppedPkNotForUs:sum(packetBytes) 	0
attr interpolationmode  none
attr source  dropPkNotForUs
attr title  "packets dropped/not for us, sum(packetBytes)"
scalar Topo.s1.etherMAC[0] 	droppedPkIfaceDown:count 	0
attr interpolationmode  none
attr source  dropPkIfaceDown
attr title  "packets dropped/interface down, count"
scalar Topo.s1.etherMAC[0] 	droppedPkIfaceDown:sum(packetBytes) 	0
attr interpolationmode  none
attr source  dropPkIfaceDown
attr title  "packets dropped/interface down, sum(packetBytes)"
scalar Topo.s1.etherMAC[0] 	droppedPkBitError:count 	0
attr interpolationmode  none
attr source  dropPkBitError
attr title  "packets dropped/bit error, count"
scalar Topo.s1.etherMAC[0] 	droppedPkBitError:sum(packetBytes) 	0
attr interpolationmode  none
attr source  dropPkBitError
attr title  "packets dropped/bit error, sum(packetBytes)"
scalar Topo.s1.etherMAC[0] 	rxPkFromHL:count 	22
attr interpolationmode  none
attr source  rxPkFromHL
attr title  "packet bytes from higher layer, count"
scalar Topo.s1.etherMAC[0] 	rxPkFromHL:sum(packetBytes) 	1408
attr interpolationmode  none
attr source  rxPkFromHL
attr title  "packet bytes from higher layer, sum(packetBytes)"
scalar Topo.s1.etherMAC[0] 	rxPausePkUnits:count 	0
attr interpolationmode  none
attr title  "pause units received, count"
scalar Topo.s1.etherMAC[0] 	rxPausePkUnits:sum 	0
attr interpolationmode  none
attr title  "pause units received, sum"
scalar Topo.s1.etherMAC[0] 	txPausePkUnits:count 	0
attr interpolationmode  none
attr title  "pause units sent, count"
scalar Topo.s1.etherMAC[0] 	txPausePkUnits:sum 	0
attr interpolationmode  none
attr title  "pause units sent, sum"
scalar Topo.s1.etherMAC[0] 	rxPkOk:count 	20
attr interpolationmode  none
attr source  rxPkOk
attr title  "packets received OK, count"
scalar Topo.s1.etherMAC[0] 	rxPkOk:sum(packetBytes) 	1280
attr interpolationmode  none
attr source  rxPkOk
attr title  "packets received OK, sum(packetBytes)"
scalar Topo.s1.etherMAC[0] 	txPk:count 	22
attr interpolationmode  none
attr source  txPk
attr title  "packets transmitted, count"
scalar Topo.s1.etherMAC[0] 	txPk:sum(packetBytes) 	1408
attr interpolationmode  none
attr source  txPk
attr title  "packets transmitted, sum(packetBytes)"
scalar Topo.s1.etherMAC[0] 	backoff:count 	0
attr interpolationmode  none
attr title  "backoff, count"
scalar Topo.s1.etherMAC[0] 	collision:count 	0
attr interpolationmode  none
attr title  "collision, count"
scalar Topo.s1.etherMAC[0] 	passedUpPk:count 	20
attr interpolationmode  none
attr source  packetSentToUpper
attr title  "packets passed to higher layer, count"
scalar Topo.s1.etherMAC[0] 	passedUpPk:sum(packetBytes) 	1280
attr interpolationmode  none
attr source  packetSentToUpper
attr title  "packets passed to higher layer, sum(packetBytes)"
scalar Topo.s1.etherMAC[1] 	"simulated time" 	26.000010456
scalar Topo.s1.etherMAC[1] 	full-duplex 	1
scalar Topo.s1.etherMAC[1] 	"frames/sec sent" 	0.3461537069468
scalar Topo.s1.etherMAC[1] 	"frames/sec rcvd" 	0.38461522994089
scalar Topo.s1.etherMAC[1] 	"bits/sec sent" 	177.23069795676
scalar Topo.s1.etherMAC[1] 	"bits/sec rcvd" 	196.92299772974
scalar Topo.s1.etherMAC[1] 	"rx channel idle (%)" 	99.999977846163
scalar Topo.s1.etherMAC[1] 	"rx channel utilization (%)" 	2.2153837244595e-05
scalar Topo.s1.etherMAC[1] 	"rx channel collision (%)" 	0
scalar Topo.s1.etherMAC[1] 	collisions 	0
scalar Topo.s1.etherMAC[1] 	backoffs 	0
scalar Topo.s1.etherMAC[1] 	droppedPkNotForUs:count 	0
attr interpolationmode  none
attr source  dropPkNotForUs
attr title  "packets dropped/not for us, count"
scalar Topo.s1.etherMAC[1] 	droppedPkNotForUs:sum(packetBytes) 	0
attr interpolationmode  none
attr source  dropPkNotForUs
attr title  "packets dropped/not for us, sum(packetBytes)"
scalar Topo.s1.etherMAC[1] 	droppedPkIfaceDown:count 	0
attr interpolationmode  none
attr source  dropPkIfaceDown
attr title  "packets dropped/interface down, count"
scalar Topo.s1.etherMAC[1] 	droppedPkIfaceDown:sum(packetBytes) 	0
attr interpolationmode  none
attr source  dropPkIfaceDown
attr title  "packets dropped/interface down, sum(packetBytes)"
scalar Topo.s1.etherMAC[1] 	droppedPkBitError:count 	0
attr interpolationmode  none
attr source  dropPkBitError
attr title  "packets dropped/bit error, count"
scalar Topo.s1.etherMAC[1] 	droppedPkBitError:sum(packetBytes) 	0
attr interpolationmode  none
attr source  dropPkBitError
attr title  "packets dropped/bit error, sum(packetBytes)"
scalar Topo.s1.etherMAC[1] 	rxPkFromHL:count 	9
attr interpolationmode  none
attr source  rxPkFromHL
attr title  "packet bytes from higher layer, count"
scalar Topo.s1.etherMAC[1] 	rxPkFromHL:sum(packetBytes) 	576
attr interpolationmode  none
attr source  rxPkFromHL
attr title  "packet bytes from higher layer, sum(packetBytes)"
scalar Topo.s1.etherMAC[1] 	rxPausePkUnits:count 	0
attr interpolationmode  none
attr title  "pause units received, count"
scalar Topo.s1.etherMAC[1] 	rxPausePkUnits:sum 	0
attr interpolationmode  none
attr title  "pause units received, sum"
scalar Topo.s1.etherMAC[1] 	txPausePkUnits:count 	0
attr interpolationmode  none
attr title  "pause units sent, count"
scalar Topo.s1.etherMAC[1] 	txPausePkUnits:sum 	0
attr interpolationmode  none
attr title  "pause units sent, sum"
scalar Topo.s1.etherMAC[1] 	rxPkOk:count 	10
attr interpolationmode  none
attr source  rxPkOk
attr title  "packets received OK, count"
scalar Topo.s1.etherMAC[1] 	rxPkOk:sum(packetBytes) 	640
attr interpolationmode  none
attr source  rxPkOk
attr title  "packets received OK, sum(packetBytes)"
scalar Topo.s1.etherMAC[1] 	txPk:count 	9
attr interpolationmode  none
attr source  txPk
attr title  "packets transmitted, count"
scalar Topo.s1.etherMAC[1] 	txPk:sum(packetBytes) 	576
attr interpolationmode  none
attr source  txPk
attr title  "packets transmitted, sum(packetBytes)"
scalar Topo.s1.etherMAC[1] 	backoff:count 	0
attr interpolationmode  none
attr title  "backoff, count"
scalar Topo.s1.etherMAC[1] 	collision:count 	0
attr interpolationmode  none
attr title  "collision, count"
scalar Topo.s1.etherMAC[1] 	passedUpPk:count 	10
attr interpolationmode  none
attr source  packetSentToUpper
attr title  "packets passed to higher layer, count"
scalar Topo.s1.etherMAC[1] 	passedUpPk:sum(packetBytes) 	640
attr interpolationmode  none
attr source  packetSentToUpper
attr title  "packets passed to higher layer, sum(packetBytes)"
scalar Topo.s1.etherMAC[2] 	"simulated time" 	26.000010456
scalar Topo.s1.etherMAC[2] 	full-duplex 	1
scalar Topo.s1.etherMAC[2] 	"frames/sec sent" 	0.3461537069468
scalar Topo.s1.etherMAC[2] 	"frames/sec rcvd" 	0.38461522994089
scalar Topo.s1.etherMAC[2] 	"bits/sec sent" 	177.23069795676
scalar Topo.s1.etherMAC[2] 	"bits/sec rcvd" 	196.92299772974
scalar Topo.s1.etherMAC[2] 	"rx channel idle (%)" 	99.999977846163
scalar Topo.s1.etherMAC[2] 	"rx channel utilization (%)" 	2.2153837244595e-05
scalar Topo.s1.etherMAC[2] 	"rx channel collision (%)" 	0
scalar Topo.s1.etherMAC[2] 	collisions 	0
scalar Topo.s1.etherMAC[2] 	backoffs 	0
scalar Topo.s1.etherMAC[2] 	droppedPkNotForUs:count 	0
attr interpolationmode  none
attr source  dropPkNotForUs
attr title  "packets dropped/not for us, count"
scalar Topo.s1.etherMAC[2] 	droppedPkNotForUs:sum(packetBytes) 	0
attr interpolationmode  none
attr source  dropPkNotForUs
attr title  "packets dropped/not for us, sum(packetBytes)"
scalar Topo.s1.etherMAC[2] 	droppedPkIfaceDown:count 	0
attr interpolationmode  none
attr source  dropPkIfaceDown
attr title  "packets dropped/interface down, count"
scalar Topo.s1.etherMAC[2] 	droppedPkIfaceDown:sum(packetBytes) 	0
attr interpolationmode  none
attr source  dropPkIfaceDown
attr title  "packets dropped/interface down, sum(packetBytes)"
scalar Topo.s1.etherMAC[2] 	droppedPkBitError:count 	0
attr interpolationmode  none
attr source  dropPkBitError
attr title  "packets dropped/bit error, count"
scalar Topo.s1.etherMAC[2] 	droppedPkBitError:sum(packetBytes) 	0
attr interpolationmode  none
attr source  dropPkBitError
attr title  "packets dropped/bit error, sum(packetBytes)"
scalar Topo.s1.etherMAC[2] 	rxPkFromHL:count 	9
attr interpolationmode  none
attr source  rxPkFromHL
attr title  "packet bytes from higher layer, count"
scalar Topo.s1.etherMAC[2] 	rxPkFromHL:sum(packetBytes) 	576
attr interpolationmode  none
attr source  rxPkFromHL
attr title  "packet bytes from higher layer, sum(packetBytes)"
scalar Topo.s1.etherMAC[2] 	rxPausePkUnits:count 	0
attr interpolationmode  none
attr title  "pause units received, count"
scalar Topo.s1.etherMAC[2] 	rxPausePkUnits:sum 	0
attr interpolationmode  none
attr title  "pause units received, sum"
scalar Topo.s1.etherMAC[2] 	txPausePkUnits:count 	0
attr interpolationmode  none
attr title  "pause units sent, count"
scalar Topo.s1.etherMAC[2] 	txPausePkUnits:sum 	0
attr interpolationmode  none
attr title  "pause units sent, sum"
scalar Topo.s1.etherMAC[2] 	rxPkOk:count 	10
attr interpolationmode  none
attr source  rxPkOk
attr title  "packets received OK, count"
scalar Topo.s1.etherMAC[2] 	rxPkOk:sum(packetBytes) 	640
attr interpolationmode  none
attr source  rxPkOk
attr title  "packets received OK, sum(packetBytes)"
scalar Topo.s1.etherMAC[2] 	txPk:count 	9
attr interpolationmode  none
attr source  txPk
attr title  "packets transmitted, count"
scalar Topo.s1.etherMAC[2] 	txPk:sum(packetBytes) 	576
attr interpolationmode  none
attr source  txPk
attr title  "packets transmitted, sum(packetBytes)"
scalar Topo.s1.etherMAC[2] 	backoff:count 	0
attr interpolationmode  none
attr title  "backoff, count"
scalar Topo.s1.etherMAC[2] 	collision:count 	0
attr interpolationmode  none
attr title  "collision, count"
scalar Topo.s1.etherMAC[2] 	passedUpPk:count 	10
attr interpolationmode  none
attr source  packetSentToUpper
attr title  "packets passed to higher layer, count"
scalar Topo.s1.etherMAC[2] 	passedUpPk:sum(packetBytes) 	640
attr interpolationmode  none
attr source  packetSentToUpper
attr title  "packets passed to higher layer, sum(packetBytes)"
scalar Topo.s1.open_Flow_Processing 	droppedPkt:last 	-nan
attr source  droppedPkt
scalar Topo.s2.networkLayer.arp 	failedARPResolution:count 	0
attr title  "ARP failed resolutions, count"
scalar Topo.s2.networkLayer.arp 	completedARPResolution:count 	1
attr title  "ARP completed resolutions, count"
scalar Topo.s2.networkLayer.arp 	initiatedARPResolution:count 	1
attr title  "ARP initiated resolutions, count"
scalar Topo.s2.networkLayer.arp 	sentReply:count 	0
attr title  "ARP replies sent, count"
scalar Topo.s2.networkLayer.arp 	sentReq:count 	1
attr title  "ARP request sent, count"
scalar Topo.s2.eth[0].mac 	"simulated time" 	26.000010456
scalar Topo.s2.eth[0].mac 	full-duplex 	1
scalar Topo.s2.eth[0].mac 	"frames/sec sent" 	0.6923074138936
scalar Topo.s2.eth[0].mac 	"frames/sec rcvd" 	0.6923074138936
scalar Topo.s2.eth[0].mac 	"bits/sec sent" 	354.46139591352
scalar Topo.s2.eth[0].mac 	"bits/sec rcvd" 	354.46139591352
scalar Topo.s2.eth[0].mac 	"rx channel idle (%)" 	99.999960123093
scalar Topo.s2.eth[0].mac 	"rx channel utilization (%)" 	3.9876907040272e-05
scalar Topo.s2.eth[0].mac 	droppedPkNotForUs:count 	0
attr interpolationmode  none
attr source  dropPkNotForUs
attr title  "packets dropped/not for us, count"
scalar Topo.s2.eth[0].mac 	droppedPkNotForUs:sum(packetBytes) 	0
attr interpolationmode  none
attr source  dropPkNotForUs
attr title  "packets dropped/not for us, sum(packetBytes)"
scalar Topo.s2.eth[0].mac 	droppedPkIfaceDown:count 	0
attr interpolationmode  none
attr source  dropPkIfaceDown
attr title  "packets dropped/interface down, count"
scalar Topo.s2.eth[0].mac 	droppedPkIfaceDown:sum(packetBytes) 	0
attr interpolationmode  none
attr source  dropPkIfaceDown
attr title  "packets dropped/interface down, sum(packetBytes)"
scalar Topo.s2.eth[0].mac 	droppedPkBitError:count 	0
attr interpolationmode  none
attr source  dropPkBitError
attr title  "packets dropped/bit error, count"
scalar Topo.s2.eth[0].mac 	droppedPkBitError:sum(packetBytes) 	0
attr interpolationmode  none
attr source  dropPkBitError
attr title  "packets dropped/bit error, sum(packetBytes)"
scalar Topo.s2.eth[0].mac 	rxPkFromHL:count 	18
attr interpolationmode  none
attr source  rxPkFromHL
attr title  "packet bytes from higher layer, count"
scalar Topo.s2.eth[0].mac 	rxPkFromHL:sum(packetBytes) 	1152
attr interpolationmode  none
attr source  rxPkFromHL
attr title  "packet bytes from higher layer, sum(packetBytes)"
scalar Topo.s2.eth[0].mac 	rxPausePkUnits:count 	0
attr interpolationmode  none
attr title  "pause units received, count"
scalar Topo.s2.eth[0].mac 	rxPausePkUnits:sum 	0
attr interpolationmode  none
attr title  "pause units received, sum"
scalar Topo.s2.eth[0].mac 	txPausePkUnits:count 	0
attr interpolationmode  none
attr title  "pause units sent, count"
scalar Topo.s2.eth[0].mac 	txPausePkUnits:sum 	0
attr interpolationmode  none
attr title  "pause units sent, sum"
scalar Topo.s2.eth[0].mac 	rxPkOk:count 	18
attr interpolationmode  none
attr source  rxPkOk
attr title  "packets received OK, count"
scalar Topo.s2.eth[0].mac 	rxPkOk:sum(packetBytes) 	1152
attr interpolationmode  none
attr source  rxPkOk
attr title  "packets received OK, sum(packetBytes)"
scalar Topo.s2.eth[0].mac 	txPk:count 	18
attr interpolationmode  none
attr source  txPk
attr title  "packets transmitted, count"
scalar Topo.s2.eth[0].mac 	txPk:sum(packetBytes) 	1152
attr interpolationmode  none
attr source  txPk
attr title  "packets transmitted, sum(packetBytes)"
scalar Topo.s2.eth[0].mac 	passedUpPk:count 	18
attr interpolationmode  none
attr source  packetSentToUpper
attr title  "packets passed to higher layer, count"
scalar Topo.s2.eth[0].mac 	passedUpPk:sum(packetBytes) 	1152
attr interpolationmode  none
attr source  packetSentToUpper
attr title  "packets passed to higher layer, sum(packetBytes)"
scalar Topo.s2.eth[0].encap 	pauseSent:count 	0
attr title  "pause sent, count"
scalar Topo.s2.eth[0].encap 	pauseSent:sum 	0
attr title  "pause sent, sum"
scalar Topo.s2.eth[0].encap 	decapPk:count 	18
attr interpolationmode  none
attr source  decapPk
attr title  "packets decapsulated, count"
scalar Topo.s2.eth[0].encap 	decapPk:sum(packetBytes) 	728
attr interpolationmode  none
attr source  decapPk
attr title  "packets decapsulated, sum(packetBytes)"
scalar Topo.s2.eth[0].encap 	encapPk:count 	18
attr interpolationmode  none
attr source  encapPk
attr title  "packets encapsulated, count"
scalar Topo.s2.eth[0].encap 	encapPk:sum(packetBytes) 	719
attr interpolationmode  none
attr source  encapPk
attr title  "packets encapsulated, sum(packetBytes)"
scalar Topo.s2.etherMAC[0] 	"simulated time" 	26.000010456
scalar Topo.s2.etherMAC[0] 	full-duplex 	1
scalar Topo.s2.etherMAC[0] 	"frames/sec sent" 	2.1923068106631
scalar Topo.s2.etherMAC[0] 	"frames/sec rcvd" 	2.153845287669
scalar Topo.s2.etherMAC[0] 	"bits/sec sent" 	1122.4610870595
scalar Topo.s2.etherMAC[0] 	"bits/sec rcvd" 	1102.7687872865
scalar Topo.s2.etherMAC[0] 	"rx channel idle (%)" 	99.999875938511
scalar Topo.s2.etherMAC[0] 	"rx channel utilization (%)" 	0.00012406148856973
scalar Topo.s2.etherMAC[0] 	"rx channel collision (%)" 	0
scalar Topo.s2.etherMAC[0] 	collisions 	0
scalar Topo.s2.etherMAC[0] 	backoffs 	0
scalar Topo.s2.etherMAC[0] 	droppedPkNotForUs:count 	0
attr interpolationmode  none
attr source  dropPkNotForUs
attr title  "packets dropped/not for us, count"
scalar Topo.s2.etherMAC[0] 	droppedPkNotForUs:sum(packetBytes) 	0
attr interpolationmode  none
attr source  dropPkNotForUs
attr title  "packets dropped/not for us, sum(packetBytes)"
scalar Topo.s2.etherMAC[0] 	droppedPkIfaceDown:count 	0
attr interpolationmode  none
attr source  dropPkIfaceDown
attr title  "packets dropped/interface down, count"
scalar Topo.s2.etherMAC[0] 	droppedPkIfaceDown:sum(packetBytes) 	0
attr interpolationmode  none
attr source  dropPkIfaceDown
attr title  "packets dropped/interface down, sum(packetBytes)"
scalar Topo.s2.etherMAC[0] 	droppedPkBitError:count 	0
attr interpolationmode  none
attr source  dropPkBitError
attr title  "packets dropped/bit error, count"
scalar Topo.s2.etherMAC[0] 	droppedPkBitError:sum(packetBytes) 	0
attr interpolationmode  none
attr source  dropPkBitError
attr title  "packets dropped/bit error, sum(packetBytes)"
scalar Topo.s2.etherMAC[0] 	rxPkFromHL:count 	57
attr interpolationmode  none
attr source  rxPkFromHL
attr title  "packet bytes from higher layer, count"
scalar Topo.s2.etherMAC[0] 	rxPkFromHL:sum(packetBytes) 	3648
attr interpolationmode  none
attr source  rxPkFromHL
attr title  "packet bytes from higher layer, sum(packetBytes)"
scalar Topo.s2.etherMAC[0] 	rxPausePkUnits:count 	0
attr interpolationmode  none
attr title  "pause units received, count"
scalar Topo.s2.etherMAC[0] 	rxPausePkUnits:sum 	0
attr interpolationmode  none
attr title  "pause units received, sum"
scalar Topo.s2.etherMAC[0] 	txPausePkUnits:count 	0
attr interpolationmode  none
attr title  "pause units sent, count"
scalar Topo.s2.etherMAC[0] 	txPausePkUnits:sum 	0
attr interpolationmode  none
attr title  "pause units sent, sum"
scalar Topo.s2.etherMAC[0] 	rxPkOk:count 	56
attr interpolationmode  none
attr source  rxPkOk
attr title  "packets received OK, count"
scalar Topo.s2.etherMAC[0] 	rxPkOk:sum(packetBytes) 	3584
attr interpolationmode  none
attr source  rxPkOk
attr title  "packets received OK, sum(packetBytes)"
scalar Topo.s2.etherMAC[0] 	txPk:count 	57
attr interpolationmode  none
attr source  txPk
attr title  "packets transmitted, count"
scalar Topo.s2.etherMAC[0] 	txPk:sum(packetBytes) 	3648
attr interpolationmode  none
attr source  txPk
attr title  "packets transmitted, sum(packetBytes)"
scalar Topo.s2.etherMAC[0] 	backoff:count 	0
attr interpolationmode  none
attr title  "backoff, count"
scalar Topo.s2.etherMAC[0] 	collision:count 	0
attr interpolationmode  none
attr title  "collision, count"
scalar Topo.s2.etherMAC[0] 	passedUpPk:count 	56
attr interpolationmode  none
attr source  packetSentToUpper
attr title  "packets passed to higher layer, count"
scalar Topo.s2.etherMAC[0] 	passedUpPk:sum(packetBytes) 	3584
attr interpolationmode  none
attr source  packetSentToUpper
attr title  "packets passed to higher layer, sum(packetBytes)"
scalar Topo.s2.etherMAC[1] 	"simulated time" 	26.000010456
scalar Topo.s2.etherMAC[1] 	full-duplex 	1
scalar Topo.s2.etherMAC[1] 	"frames/sec sent" 	0.38461522994089
scalar Topo.s2.etherMAC[1] 	"frames/sec rcvd" 	0.3461537069468
scalar Topo.s2.etherMAC[1] 	"bits/sec sent" 	196.92299772974
scalar Topo.s2.etherMAC[1] 	"bits/sec rcvd" 	177.23069795676
scalar Topo.s2.etherMAC[1] 	"rx channel idle (%)" 	99.999980061546
scalar Topo.s2.etherMAC[1] 	"rx channel utilization (%)" 	1.9938453520136e-05
scalar Topo.s2.etherMAC[1] 	"rx channel collision (%)" 	0
scalar Topo.s2.etherMAC[1] 	collisions 	0
scalar Topo.s2.etherMAC[1] 	backoffs 	0
scalar Topo.s2.etherMAC[1] 	droppedPkNotForUs:count 	0
attr interpolationmode  none
attr source  dropPkNotForUs
attr title  "packets dropped/not for us, count"
scalar Topo.s2.etherMAC[1] 	droppedPkNotForUs:sum(packetBytes) 	0
attr interpolationmode  none
attr source  dropPkNotForUs
attr title  "packets dropped/not for us, sum(packetBytes)"
scalar Topo.s2.etherMAC[1] 	droppedPkIfaceDown:count 	0
attr interpolationmode  none
attr source  dropPkIfaceDown
attr title  "packets dropped/interface down, count"
scalar Topo.s2.etherMAC[1] 	droppedPkIfaceDown:sum(packetBytes) 	0
attr interpolationmode  none
attr source  dropPkIfaceDown
attr title  "packets dropped/interface down, sum(packetBytes)"
scalar Topo.s2.etherMAC[1] 	droppedPkBitError:count 	0
attr interpolationmode  none
attr source  dropPkBitError
attr title  "packets dropped/bit error, count"
scalar Topo.s2.etherMAC[1] 	droppedPkBitError:sum(packetBytes) 	0
attr interpolationmode  none
attr source  dropPkBitError
attr title  "packets dropped/bit error, sum(packetBytes)"
scalar Topo.s2.etherMAC[1] 	rxPkFromHL:count 	10
attr interpolationmode  none
attr source  rxPkFromHL
attr title  "packet bytes from higher layer, count"
scalar Topo.s2.etherMAC[1] 	rxPkFromHL:sum(packetBytes) 	640
attr interpolationmode  none
attr source  rxPkFromHL
attr title  "packet bytes from higher layer, sum(packetBytes)"
scalar Topo.s2.etherMAC[1] 	rxPausePkUnits:count 	0
attr interpolationmode  none
attr title  "pause units received, count"
scalar Topo.s2.etherMAC[1] 	rxPausePkUnits:sum 	0
attr interpolationmode  none
attr title  "pause units received, sum"
scalar Topo.s2.etherMAC[1] 	txPausePkUnits:count 	0
attr interpolationmode  none
attr title  "pause units sent, count"
scalar Topo.s2.etherMAC[1] 	txPausePkUnits:sum 	0
attr interpolationmode  none
attr title  "pause units sent, sum"
scalar Topo.s2.etherMAC[1] 	rxPkOk:count 	9
attr interpolationmode  none
attr source  rxPkOk
attr title  "packets received OK, count"
scalar Topo.s2.etherMAC[1] 	rxPkOk:sum(packetBytes) 	576
attr interpolationmode  none
attr source  rxPkOk
attr title  "packets received OK, sum(packetBytes)"
scalar Topo.s2.etherMAC[1] 	txPk:count 	10
attr interpolationmode  none
attr source  txPk
attr title  "packets transmitted, count"
scalar Topo.s2.etherMAC[1] 	txPk:sum(packetBytes) 	640
attr interpolationmode  none
attr source  txPk
attr title  "packets transmitted, sum(packetBytes)"
scalar Topo.s2.etherMAC[1] 	backoff:count 	0
attr interpolationmode  none
attr title  "backoff, count"
scalar Topo.s2.etherMAC[1] 	collision:count 	0
attr interpolationmode  none
attr title  "collision, count"
scalar Topo.s2.etherMAC[1] 	passedUpPk:count 	9
attr interpolationmode  none
attr source  packetSentToUpper
attr title  "packets passed to higher layer, count"
scalar Topo.s2.etherMAC[1] 	passedUpPk:sum(packetBytes) 	576
attr interpolationmode  none
attr source  packetSentToUpper
attr title  "packets passed to higher layer, sum(packetBytes)"
scalar Topo.s2.etherMAC[2] 	"simulated time" 	26.000010456
scalar Topo.s2.etherMAC[2] 	full-duplex 	1
scalar Topo.s2.etherMAC[2] 	"frames/sec sent" 	0
scalar Topo.s2.etherMAC[2] 	"frames/sec rcvd" 	0
scalar Topo.s2.etherMAC[2] 	"bits/sec sent" 	0
scalar Topo.s2.etherMAC[2] 	"bits/sec rcvd" 	0
scalar Topo.s2.etherMAC[2] 	"rx channel idle (%)" 	100
scalar Topo.s2.etherMAC[2] 	"rx channel utilization (%)" 	0
scalar Topo.s2.etherMAC[2] 	"rx channel collision (%)" 	0
scalar Topo.s2.etherMAC[2] 	collisions 	0
scalar Topo.s2.etherMAC[2] 	backoffs 	0
scalar Topo.s2.etherMAC[2] 	droppedPkNotForUs:count 	0
attr interpolationmode  none
attr source  dropPkNotForUs
attr title  "packets dropped/not for us, count"
scalar Topo.s2.etherMAC[2] 	droppedPkNotForUs:sum(packetBytes) 	0
attr interpolationmode  none
attr source  dropPkNotForUs
attr title  "packets dropped/not for us, sum(packetBytes)"
scalar Topo.s2.etherMAC[2] 	droppedPkIfaceDown:count 	0
attr interpolationmode  none
attr source  dropPkIfaceDown
attr title  "packets dropped/interface down, count"
scalar Topo.s2.etherMAC[2] 	droppedPkIfaceDown:sum(packetBytes) 	0
attr interpolationmode  none
attr source  dropPkIfaceDown
attr title  "packets dropped/interface down, sum(packetBytes)"
scalar Topo.s2.etherMAC[2] 	droppedPkBitError:count 	0
attr interpolationmode  none
attr source  dropPkBitError
attr title  "packets dropped/bit error, count"
scalar Topo.s2.etherMAC[2] 	droppedPkBitError:sum(packetBytes) 	0
attr interpolationmode  none
attr source  dropPkBitError
attr title  "packets dropped/bit error, sum(packetBytes)"
scalar Topo.s2.etherMAC[2] 	rxPkFromHL:count 	0
attr interpolationmode  none
attr source  rxPkFromHL
attr title  "packet bytes from higher layer, count"
scalar Topo.s2.etherMAC[2] 	rxPkFromHL:sum(packetBytes) 	0
attr interpolationmode  none
attr source  rxPkFromHL
attr title  "packet bytes from higher layer, sum(packetBytes)"
scalar Topo.s2.etherMAC[2] 	rxPausePkUnits:count 	0
attr interpolationmode  none
attr title  "pause units received, count"
scalar Topo.s2.etherMAC[2] 	rxPausePkUnits:sum 	0
attr interpolationmode  none
attr title  "pause units received, sum"
scalar Topo.s2.etherMAC[2] 	txPausePkUnits:count 	0
attr interpolationmode  none
attr title  "pause units sent, count"
scalar Topo.s2.etherMAC[2] 	txPausePkUnits:sum 	0
attr interpolationmode  none
attr title  "pause units sent, sum"
scalar Topo.s2.etherMAC[2] 	rxPkOk:count 	0
attr interpolationmode  none
attr source  rxPkOk
attr title  "packets received OK, count"
scalar Topo.s2.etherMAC[2] 	rxPkOk:sum(packetBytes) 	0
attr interpolationmode  none
attr source  rxPkOk
attr title  "packets received OK, sum(packetBytes)"
scalar Topo.s2.etherMAC[2] 	txPk:count 	0
attr interpolationmode  none
attr source  txPk
attr title  "packets transmitted, count"
scalar Topo.s2.etherMAC[2] 	txPk:sum(packetBytes) 	0
attr interpolationmode  none
attr source  txPk
attr title  "packets transmitted, sum(packetBytes)"
scalar Topo.s2.etherMAC[2] 	backoff:count 	0
attr interpolationmode  none
attr title  "backoff, count"
scalar Topo.s2.etherMAC[2] 	collision:count 	0
attr interpolationmode  none
attr title  "collision, count"
scalar Topo.s2.etherMAC[2] 	passedUpPk:count 	0
attr interpolationmode  none
attr source  packetSentToUpper
attr title  "packets passed to higher layer, count"
scalar Topo.s2.etherMAC[2] 	passedUpPk:sum(packetBytes) 	0
attr interpolationmode  none
attr source  packetSentToUpper
attr title  "packets passed to higher layer, sum(packetBytes)"
scalar Topo.s2.etherMAC[3] 	"simulated time" 	26.000010456
scalar Topo.s2.etherMAC[3] 	full-duplex 	1
scalar Topo.s2.etherMAC[3] 	"frames/sec sent" 	1.6538454887458
scalar Topo.s2.etherMAC[3] 	"frames/sec rcvd" 	1.730768534734
scalar Topo.s2.etherMAC[3] 	"bits/sec sent" 	846.76889023786
scalar Topo.s2.etherMAC[3] 	"bits/sec rcvd" 	886.15348978381
scalar Topo.s2.etherMAC[3] 	"rx channel idle (%)" 	99.999900307732
scalar Topo.s2.etherMAC[3] 	"rx channel utilization (%)" 	9.9692267600679e-05
scalar Topo.s2.etherMAC[3] 	"rx channel collision (%)" 	0
scalar Topo.s2.etherMAC[3] 	collisions 	0
scalar Topo.s2.etherMAC[3] 	backoffs 	0
scalar Topo.s2.etherMAC[3] 	droppedPkNotForUs:count 	0
attr interpolationmode  none
attr source  dropPkNotForUs
attr title  "packets dropped/not for us, count"
scalar Topo.s2.etherMAC[3] 	droppedPkNotForUs:sum(packetBytes) 	0
attr interpolationmode  none
attr source  dropPkNotForUs
attr title  "packets dropped/not for us, sum(packetBytes)"
scalar Topo.s2.etherMAC[3] 	droppedPkIfaceDown:count 	0
attr interpolationmode  none
attr source  dropPkIfaceDown
attr title  "packets dropped/interface down, count"
scalar Topo.s2.etherMAC[3] 	droppedPkIfaceDown:sum(packetBytes) 	0
attr interpolationmode  none
attr source  dropPkIfaceDown
attr title  "packets dropped/interface down, sum(packetBytes)"
scalar Topo.s2.etherMAC[3] 	droppedPkBitError:count 	0
attr interpolationmode  none
attr source  dropPkBitError
attr title  "packets dropped/bit error, count"
scalar Topo.s2.etherMAC[3] 	droppedPkBitError:sum(packetBytes) 	0
attr interpolationmode  none
attr source  dropPkBitError
attr title  "packets dropped/bit error, sum(packetBytes)"
scalar Topo.s2.etherMAC[3] 	rxPkFromHL:count 	43
attr interpolationmode  none
attr source  rxPkFromHL
attr title  "packet bytes from higher layer, count"
scalar Topo.s2.etherMAC[3] 	rxPkFromHL:sum(packetBytes) 	2752
attr interpolationmode  none
attr source  rxPkFromHL
attr title  "packet bytes from higher layer, sum(packetBytes)"
scalar Topo.s2.etherMAC[3] 	rxPausePkUnits:count 	0
attr interpolationmode  none
attr title  "pause units received, count"
scalar Topo.s2.etherMAC[3] 	rxPausePkUnits:sum 	0
attr interpolationmode  none
attr title  "pause units received, sum"
scalar Topo.s2.etherMAC[3] 	txPausePkUnits:count 	0
attr interpolationmode  none
attr title  "pause units sent, count"
scalar Topo.s2.etherMAC[3] 	txPausePkUnits:sum 	0
attr interpolationmode  none
attr title  "pause units sent, sum"
scalar Topo.s2.etherMAC[3] 	rxPkOk:count 	45
attr interpolationmode  none
attr source  rxPkOk
attr title  "packets received OK, count"
scalar Topo.s2.etherMAC[3] 	rxPkOk:sum(packetBytes) 	2880
attr interpolationmode  none
attr source  rxPkOk
attr title  "packets received OK, sum(packetBytes)"
scalar Topo.s2.etherMAC[3] 	txPk:count 	43
attr interpolationmode  none
attr source  txPk
attr title  "packets transmitted, count"
scalar Topo.s2.etherMAC[3] 	txPk:sum(packetBytes) 	2752
attr interpolationmode  none
attr source  txPk
attr title  "packets transmitted, sum(packetBytes)"
scalar Topo.s2.etherMAC[3] 	backoff:count 	0
attr interpolationmode  none
attr title  "backoff, count"
scalar Topo.s2.etherMAC[3] 	collision:count 	0
attr interpolationmode  none
attr title  "collision, count"
scalar Topo.s2.etherMAC[3] 	passedUpPk:count 	45
attr interpolationmode  none
attr source  packetSentToUpper
attr title  "packets passed to higher layer, count"
scalar Topo.s2.etherMAC[3] 	passedUpPk:sum(packetBytes) 	2880
attr interpolationmode  none
attr source  packetSentToUpper
attr title  "packets passed to higher layer, sum(packetBytes)"
scalar Topo.s2.open_Flow_Processing 	droppedPkt:last 	-nan
attr source  droppedPkt
scalar Topo.s3.networkLayer.arp 	failedARPResolution:count 	0
attr title  "ARP failed resolutions, count"
scalar Topo.s3.networkLayer.arp 	completedARPResolution:count 	1
attr title  "ARP completed resolutions, count"
scalar Topo.s3.networkLayer.arp 	initiatedARPResolution:count 	1
attr title  "ARP initiated resolutions, count"
scalar Topo.s3.networkLayer.arp 	sentReply:count 	0
attr title  "ARP replies sent, count"
scalar Topo.s3.networkLayer.arp 	sentReq:count 	1
attr title  "ARP request sent, count"
scalar Topo.s3.eth[0].mac 	"simulated time" 	26.000010456
scalar Topo.s3.eth[0].mac 	full-duplex 	1
scalar Topo.s3.eth[0].mac 	"frames/sec sent" 	0.76923045988178
scalar Topo.s3.eth[0].mac 	"frames/sec rcvd" 	0.76923045988178
scalar Topo.s3.eth[0].mac 	"bits/sec sent" 	393.84599545947
scalar Topo.s3.eth[0].mac 	"bits/sec rcvd" 	393.84599545947
scalar Topo.s3.eth[0].mac 	"rx channel idle (%)" 	99.999955692326
scalar Topo.s3.eth[0].mac 	"rx channel utilization (%)" 	4.4307674489191e-05
scalar Topo.s3.eth[0].mac 	droppedPkNotForUs:count 	0
attr interpolationmode  none
attr source  dropPkNotForUs
attr title  "packets dropped/not for us, count"
scalar Topo.s3.eth[0].mac 	droppedPkNotForUs:sum(packetBytes) 	0
attr interpolationmode  none
attr source  dropPkNotForUs
attr title  "packets dropped/not for us, sum(packetBytes)"
scalar Topo.s3.eth[0].mac 	droppedPkIfaceDown:count 	0
attr interpolationmode  none
attr source  dropPkIfaceDown
attr title  "packets dropped/interface down, count"
scalar Topo.s3.eth[0].mac 	droppedPkIfaceDown:sum(packetBytes) 	0
attr interpolationmode  none
attr source  dropPkIfaceDown
attr title  "packets dropped/interface down, sum(packetBytes)"
scalar Topo.s3.eth[0].mac 	droppedPkBitError:count 	0
attr interpolationmode  none
attr source  dropPkBitError
attr title  "packets dropped/bit error, count"
scalar Topo.s3.eth[0].mac 	droppedPkBitError:sum(packetBytes) 	0
attr interpolationmode  none
attr source  dropPkBitError
attr title  "packets dropped/bit error, sum(packetBytes)"
scalar Topo.s3.eth[0].mac 	rxPkFromHL:count 	20
attr interpolationmode  none
attr source  rxPkFromHL
attr title  "packet bytes from higher layer, count"
scalar Topo.s3.eth[0].mac 	rxPkFromHL:sum(packetBytes) 	1280
attr interpolationmode  none
attr source  rxPkFromHL
attr title  "packet bytes from higher layer, sum(packetBytes)"
scalar Topo.s3.eth[0].mac 	rxPausePkUnits:count 	0
attr interpolationmode  none
attr title  "pause units received, count"
scalar Topo.s3.eth[0].mac 	rxPausePkUnits:sum 	0
attr interpolationmode  none
attr title  "pause units received, sum"
scalar Topo.s3.eth[0].mac 	txPausePkUnits:count 	0
attr interpolationmode  none
attr title  "pause units sent, count"
scalar Topo.s3.eth[0].mac 	txPausePkUnits:sum 	0
attr interpolationmode  none
attr title  "pause units sent, sum"
scalar Topo.s3.eth[0].mac 	rxPkOk:count 	20
attr interpolationmode  none
attr source  rxPkOk
attr title  "packets received OK, count"
scalar Topo.s3.eth[0].mac 	rxPkOk:sum(packetBytes) 	1280
attr interpolationmode  none
attr source  rxPkOk
attr title  "packets received OK, sum(packetBytes)"
scalar Topo.s3.eth[0].mac 	txPk:count 	20
attr interpolationmode  none
attr source  txPk
attr title  "packets transmitted, count"
scalar Topo.s3.eth[0].mac 	txPk:sum(packetBytes) 	1280
attr interpolationmode  none
attr source  txPk
attr title  "packets transmitted, sum(packetBytes)"
scalar Topo.s3.eth[0].mac 	passedUpPk:count 	20
attr interpolationmode  none
attr source  packetSentToUpper
attr title  "packets passed to higher layer, count"
scalar Topo.s3.eth[0].mac 	passedUpPk:sum(packetBytes) 	1280
attr interpolationmode  none
attr source  packetSentToUpper
attr title  "packets passed to higher layer, sum(packetBytes)"
scalar Topo.s3.eth[0].encap 	pauseSent:count 	0
attr title  "pause sent, count"
scalar Topo.s3.eth[0].encap 	pauseSent:sum 	0
attr title  "pause sent, sum"
scalar Topo.s3.eth[0].encap 	decapPk:count 	20
attr interpolationmode  none
attr source  decapPk
attr title  "packets decapsulated, count"
scalar Topo.s3.eth[0].encap 	decapPk:sum(packetBytes) 	810
attr interpolationmode  none
attr source  decapPk
attr title  "packets decapsulated, sum(packetBytes)"
scalar Topo.s3.eth[0].encap 	encapPk:count 	20
attr interpolationmode  none
attr source  encapPk
attr title  "packets encapsulated, count"
scalar Topo.s3.eth[0].encap 	encapPk:sum(packetBytes) 	800
attr interpolationmode  none
attr source  encapPk
attr title  "packets encapsulated, sum(packetBytes)"
scalar Topo.s3.etherMAC[0] 	"simulated time" 	26.000010456
scalar Topo.s3.etherMAC[0] 	full-duplex 	1
scalar Topo.s3.etherMAC[0] 	"frames/sec sent" 	1.6153839657517
scalar Topo.s3.etherMAC[0] 	"frames/sec rcvd" 	1.5769224427577
scalar Topo.s3.etherMAC[0] 	"bits/sec sent" 	827.07659046489
scalar Topo.s3.etherMAC[0] 	"bits/sec rcvd" 	807.38429069192
scalar Topo.s3.etherMAC[0] 	"rx channel idle (%)" 	99.999909169267
scalar Topo.s3.etherMAC[0] 	"rx channel utilization (%)" 	9.0830732702841e-05
scalar Topo.s3.etherMAC[0] 	"rx channel collision (%)" 	0
scalar Topo.s3.etherMAC[0] 	collisions 	0
scalar Topo.s3.etherMAC[0] 	backoffs 	0
scalar Topo.s3.etherMAC[0] 	droppedPkNotForUs:count 	0
attr interpolationmode  none
attr source  dropPkNotForUs
attr title  "packets dropped/not for us, count"
scalar Topo.s3.etherMAC[0] 	droppedPkNotForUs:sum(packetBytes) 	0
attr interpolationmode  none
attr source  dropPkNotForUs
attr title  "packets dropped/not for us, sum(packetBytes)"
scalar Topo.s3.etherMAC[0] 	droppedPkIfaceDown:count 	0
attr interpolationmode  none
attr source  dropPkIfaceDown
attr title  "packets dropped/interface down, count"
scalar Topo.s3.etherMAC[0] 	droppedPkIfaceDown:sum(packetBytes) 	0
attr interpolationmode  none
attr source  dropPkIfaceDown
attr title  "packets dropped/interface down, sum(packetBytes)"
scalar Topo.s3.etherMAC[0] 	droppedPkBitError:count 	0
attr interpolationmode  none
attr source  dropPkBitError
attr title  "packets dropped/bit error, count"
scalar Topo.s3.etherMAC[0] 	droppedPkBitError:sum(packetBytes) 	0
attr interpolationmode  none
attr source  dropPkBitError
attr title  "packets dropped/bit error, sum(packetBytes)"
scalar Topo.s3.etherMAC[0] 	rxPkFromHL:count 	42
attr interpolationmode  none
attr source  rxPkFromHL
attr title  "packet bytes from higher layer, count"
scalar Topo.s3.etherMAC[0] 	rxPkFromHL:sum(packetBytes) 	2688
attr interpolationmode  none
attr source  rxPkFromHL
attr title  "packet bytes from higher layer, sum(packetBytes)"
scalar Topo.s3.etherMAC[0] 	rxPausePkUnits:count 	0
attr interpolationmode  none
attr title  "pause units received, count"
scalar Topo.s3.etherMAC[0] 	rxPausePkUnits:sum 	0
attr interpolationmode  none
attr title  "pause units received, sum"
scalar Topo.s3.etherMAC[0] 	txPausePkUnits:count 	0
attr interpolationmode  none
attr title  "pause units sent, count"
scalar Topo.s3.etherMAC[0] 	txPausePkUnits:sum 	0
attr interpolationmode  none
attr title  "pause units sent, sum"
scalar Topo.s3.etherMAC[0] 	rxPkOk:count 	41
attr interpolationmode  none
attr source  rxPkOk
attr title  "packets received OK, count"
scalar Topo.s3.etherMAC[0] 	rxPkOk:sum(packetBytes) 	2624
attr interpolationmode  none
attr source  rxPkOk
attr title  "packets received OK, sum(packetBytes)"
scalar Topo.s3.etherMAC[0] 	txPk:count 	42
attr interpolationmode  none
attr source  txPk
attr title  "packets transmitted, count"
scalar Topo.s3.etherMAC[0] 	txPk:sum(packetBytes) 	2688
attr interpolationmode  none
attr source  txPk
attr title  "packets transmitted, sum(packetBytes)"
scalar Topo.s3.etherMAC[0] 	backoff:count 	0
attr interpolationmode  none
attr title  "backoff, count"
scalar Topo.s3.etherMAC[0] 	collision:count 	0
attr interpolationmode  none
attr title  "collision, count"
scalar Topo.s3.etherMAC[0] 	passedUpPk:count 	41
attr interpolationmode  none
attr source  packetSentToUpper
attr title  "packets passed to higher layer, count"
scalar Topo.s3.etherMAC[0] 	passedUpPk:sum(packetBytes) 	2624
attr interpolationmode  none
attr source  packetSentToUpper
attr title  "packets passed to higher layer, sum(packetBytes)"
scalar Topo.s3.etherMAC[1] 	"simulated time" 	26.000010456
scalar Topo.s3.etherMAC[1] 	full-duplex 	1
scalar Topo.s3.etherMAC[1] 	"frames/sec sent" 	0.38461522994089
scalar Topo.s3.etherMAC[1] 	"frames/sec rcvd" 	0.3461537069468
scalar Topo.s3.etherMAC[1] 	"bits/sec sent" 	196.92299772974
scalar Topo.s3.etherMAC[1] 	"bits/sec rcvd" 	177.23069795676
scalar Topo.s3.etherMAC[1] 	"rx channel idle (%)" 	99.999980061546
scalar Topo.s3.etherMAC[1] 	"rx channel utilization (%)" 	1.9938453520136e-05
scalar Topo.s3.etherMAC[1] 	"rx channel collision (%)" 	0
scalar Topo.s3.etherMAC[1] 	collisions 	0
scalar Topo.s3.etherMAC[1] 	backoffs 	0
scalar Topo.s3.etherMAC[1] 	droppedPkNotForUs:count 	0
attr interpolationmode  none
attr source  dropPkNotForUs
attr title  "packets dropped/not for us, count"
scalar Topo.s3.etherMAC[1] 	droppedPkNotForUs:sum(packetBytes) 	0
attr interpolationmode  none
attr source  dropPkNotForUs
attr title  "packets dropped/not for us, sum(packetBytes)"
scalar Topo.s3.etherMAC[1] 	droppedPkIfaceDown:count 	0
attr interpolationmode  none
attr source  dropPkIfaceDown
attr title  "packets dropped/interface down, count"
scalar Topo.s3.etherMAC[1] 	droppedPkIfaceDown:sum(packetBytes) 	0
attr interpolationmode  none
attr source  dropPkIfaceDown
attr title  "packets dropped/interface down, sum(packetBytes)"
scalar Topo.s3.etherMAC[1] 	droppedPkBitError:count 	0
attr interpolationmode  none
attr source  dropPkBitError
attr title  "packets dropped/bit error, count"
scalar Topo.s3.etherMAC[1] 	droppedPkBitError:sum(packetBytes) 	0
attr interpolationmode  none
attr source  dropPkBitError
attr title  "packets dropped/bit error, sum(packetBytes)"
scalar Topo.s3.etherMAC[1] 	rxPkFromHL:count 	10
attr interpolationmode  none
attr source  rxPkFromHL
attr title  "packet bytes from higher layer, count"
scalar Topo.s3.etherMAC[1] 	rxPkFromHL:sum(packetBytes) 	640
attr interpolationmode  none
attr source  rxPkFromHL
attr title  "packet bytes from higher layer, sum(packetBytes)"
scalar Topo.s3.etherMAC[1] 	rxPausePkUnits:count 	0
attr interpolationmode  none
attr title  "pause units received, count"
scalar Topo.s3.etherMAC[1] 	rxPausePkUnits:sum 	0
attr interpolationmode  none
attr title  "pause units received, sum"
scalar Topo.s3.etherMAC[1] 	txPausePkUnits:count 	0
attr interpolationmode  none
attr title  "pause units sent, count"
scalar Topo.s3.etherMAC[1] 	txPausePkUnits:sum 	0
attr interpolationmode  none
attr title  "pause units sent, sum"
scalar Topo.s3.etherMAC[1] 	rxPkOk:count 	9
attr interpolationmode  none
attr source  rxPkOk
attr title  "packets received OK, count"
scalar Topo.s3.etherMAC[1] 	rxPkOk:sum(packetBytes) 	576
attr interpolationmode  none
attr source  rxPkOk
attr title  "packets received OK, sum(packetBytes)"
scalar Topo.s3.etherMAC[1] 	txPk:count 	10
attr interpolationmode  none
attr source  txPk
attr title  "packets transmitted, count"
scalar Topo.s3.etherMAC[1] 	txPk:sum(packetBytes) 	640
attr interpolationmode  none
attr source  txPk
attr title  "packets transmitted, sum(packetBytes)"
scalar Topo.s3.etherMAC[1] 	backoff:count 	0
attr interpolationmode  none
attr title  "backoff, count"
scalar Topo.s3.etherMAC[1] 	collision:count 	0
attr interpolationmode  none
attr title  "collision, count"
scalar Topo.s3.etherMAC[1] 	passedUpPk:count 	9
attr interpolationmode  none
attr source  packetSentToUpper
attr title  "packets passed to higher layer, count"
scalar Topo.s3.etherMAC[1] 	passedUpPk:sum(packetBytes) 	576
attr interpolationmode  none
attr source  packetSentToUpper
attr title  "packets passed to higher layer, sum(packetBytes)"
scalar Topo.s3.etherMAC[2] 	"simulated time" 	26.000010456
scalar Topo.s3.etherMAC[2] 	full-duplex 	1
scalar Topo.s3.etherMAC[2] 	"frames/sec sent" 	0
scalar Topo.s3.etherMAC[2] 	"frames/sec rcvd" 	0
scalar Topo.s3.etherMAC[2] 	"bits/sec sent" 	0
scalar Topo.s3.etherMAC[2] 	"bits/sec rcvd" 	0
scalar Topo.s3.etherMAC[2] 	"rx channel idle (%)" 	100
scalar Topo.s3.etherMAC[2] 	"rx channel utilization (%)" 	0
scalar Topo.s3.etherMAC[2] 	"rx channel collision (%)" 	0
scalar Topo.s3.etherMAC[2] 	collisions 	0
scalar Topo.s3.etherMAC[2] 	backoffs 	0
scalar Topo.s3.etherMAC[2] 	droppedPkNotForUs:count 	0
attr interpolationmode  none
attr source  dropPkNotForUs
attr title  "packets dropped/not for us, count"
scalar Topo.s3.etherMAC[2] 	droppedPkNotForUs:sum(packetBytes) 	0
attr interpolationmode  none
attr source  dropPkNotForUs
attr title  "packets dropped/not for us, sum(packetBytes)"
scalar Topo.s3.etherMAC[2] 	droppedPkIfaceDown:count 	0
attr interpolationmode  none
attr source  dropPkIfaceDown
attr title  "packets dropped/interface down, count"
scalar Topo.s3.etherMAC[2] 	droppedPkIfaceDown:sum(packetBytes) 	0
attr interpolationmode  none
attr source  dropPkIfaceDown
attr title  "packets dropped/interface down, sum(packetBytes)"
scalar Topo.s3.etherMAC[2] 	droppedPkBitError:count 	0
attr interpolationmode  none
attr source  dropPkBitError
attr title  "packets dropped/bit error, count"
scalar Topo.s3.etherMAC[2] 	droppedPkBitError:sum(packetBytes) 	0
attr interpolationmode  none
attr source  dropPkBitError
attr title  "packets dropped/bit error, sum(packetBytes)"
scalar Topo.s3.etherMAC[2] 	rxPkFromHL:count 	0
attr interpolationmode  none
attr source  rxPkFromHL
attr title  "packet bytes from higher layer, count"
scalar Topo.s3.etherMAC[2] 	rxPkFromHL:sum(packetBytes) 	0
attr interpolationmode  none
attr source  rxPkFromHL
attr title  "packet bytes from higher layer, sum(packetBytes)"
scalar Topo.s3.etherMAC[2] 	rxPausePkUnits:count 	0
attr interpolationmode  none
attr title  "pause units received, count"
scalar Topo.s3.etherMAC[2] 	rxPausePkUnits:sum 	0
attr interpolationmode  none
attr title  "pause units received, sum"
scalar Topo.s3.etherMAC[2] 	txPausePkUnits:count 	0
attr interpolationmode  none
attr title  "pause units sent, count"
scalar Topo.s3.etherMAC[2] 	txPausePkUnits:sum 	0
attr interpolationmode  none
attr title  "pause units sent, sum"
scalar Topo.s3.etherMAC[2] 	rxPkOk:count 	0
attr interpolationmode  none
attr source  rxPkOk
attr title  "packets received OK, count"
scalar Topo.s3.etherMAC[2] 	rxPkOk:sum(packetBytes) 	0
attr interpolationmode  none
attr source  rxPkOk
attr title  "packets received OK, sum(packetBytes)"
scalar Topo.s3.etherMAC[2] 	txPk:count 	0
attr interpolationmode  none
attr source  txPk
attr title  "packets transmitted, count"
scalar Topo.s3.etherMAC[2] 	txPk:sum(packetBytes) 	0
attr interpolationmode  none
attr source  txPk
attr title  "packets transmitted, sum(packetBytes)"
scalar Topo.s3.etherMAC[2] 	backoff:count 	0
attr interpolationmode  none
attr title  "backoff, count"
scalar Topo.s3.etherMAC[2] 	collision:count 	0
attr interpolationmode  none
attr title  "collision, count"
scalar Topo.s3.etherMAC[2] 	passedUpPk:count 	0
attr interpolationmode  none
attr source  packetSentToUpper
attr title  "packets passed to higher layer, count"
scalar Topo.s3.etherMAC[2] 	passedUpPk:sum(packetBytes) 	0
attr interpolationmode  none
attr source  packetSentToUpper
attr title  "packets passed to higher layer, sum(packetBytes)"
scalar Topo.s3.etherMAC[3] 	"simulated time" 	26.000010456
scalar Topo.s3.etherMAC[3] 	full-duplex 	1
scalar Topo.s3.etherMAC[3] 	"frames/sec sent" 	1.0769226438345
scalar Topo.s3.etherMAC[3] 	"frames/sec rcvd" 	1.1538456898227
scalar Topo.s3.etherMAC[3] 	"bits/sec sent" 	551.38439364326
scalar Topo.s3.etherMAC[3] 	"bits/sec rcvd" 	590.76899318921
scalar Topo.s3.etherMAC[3] 	"rx channel idle (%)" 	99.999933538488
scalar Topo.s3.etherMAC[3] 	"rx channel utilization (%)" 	6.6461511733786e-05
scalar Topo.s3.etherMAC[3] 	"rx channel collision (%)" 	0
scalar Topo.s3.etherMAC[3] 	collisions 	0
scalar Topo.s3.etherMAC[3] 	backoffs 	0
scalar Topo.s3.etherMAC[3] 	droppedPkNotForUs:count 	0
attr interpolationmode  none
attr source  dropPkNotForUs
attr title  "packets dropped/not for us, count"
scalar Topo.s3.etherMAC[3] 	droppedPkNotForUs:sum(packetBytes) 	0
attr interpolationmode  none
attr source  dropPkNotForUs
attr title  "packets dropped/not for us, sum(packetBytes)"
scalar Topo.s3.etherMAC[3] 	droppedPkIfaceDown:count 	0
attr interpolationmode  none
attr source  dropPkIfaceDown
attr title  "packets dropped/interface down, count"
scalar Topo.s3.etherMAC[3] 	droppedPkIfaceDown:sum(packetBytes) 	0
attr interpolationmode  none
attr source  dropPkIfaceDown
attr title  "packets dropped/interface down, sum(packetBytes)"
scalar Topo.s3.etherMAC[3] 	droppedPkBitError:count 	0
attr interpolationmode  none
attr source  dropPkBitError
attr title  "packets dropped/bit error, count"
scalar Topo.s3.etherMAC[3] 	droppedPkBitError:sum(packetBytes) 	0
attr interpolationmode  none
attr source  dropPkBitError
attr title  "packets dropped/bit error, sum(packetBytes)"
scalar Topo.s3.etherMAC[3] 	rxPkFromHL:count 	28
attr interpolationmode  none
attr source  rxPkFromHL
attr title  "packet bytes from higher layer, count"
scalar Topo.s3.etherMAC[3] 	rxPkFromHL:sum(packetBytes) 	1792
attr interpolationmode  none
attr source  rxPkFromHL
attr title  "packet bytes from higher layer, sum(packetBytes)"
scalar Topo.s3.etherMAC[3] 	rxPausePkUnits:count 	0
attr interpolationmode  none
attr title  "pause units received, count"
scalar Topo.s3.etherMAC[3] 	rxPausePkUnits:sum 	0
attr interpolationmode  none
attr title  "pause units received, sum"
scalar Topo.s3.etherMAC[3] 	txPausePkUnits:count 	0
attr interpolationmode  none
attr title  "pause units sent, count"
scalar Topo.s3.etherMAC[3] 	txPausePkUnits:sum 	0
attr interpolationmode  none
attr title  "pause units sent, sum"
scalar Topo.s3.etherMAC[3] 	rxPkOk:count 	30
attr interpolationmode  none
attr source  rxPkOk
attr title  "packets received OK, count"
scalar Topo.s3.etherMAC[3] 	rxPkOk:sum(packetBytes) 	1920
attr interpolationmode  none
attr source  rxPkOk
attr title  "packets received OK, sum(packetBytes)"
scalar Topo.s3.etherMAC[3] 	txPk:count 	28
attr interpolationmode  none
attr source  txPk
attr title  "packets transmitted, count"
scalar Topo.s3.etherMAC[3] 	txPk:sum(packetBytes) 	1792
attr interpolationmode  none
attr source  txPk
attr title  "packets transmitted, sum(packetBytes)"
scalar Topo.s3.etherMAC[3] 	backoff:count 	0
attr interpolationmode  none
attr title  "backoff, count"
scalar Topo.s3.etherMAC[3] 	collision:count 	0
attr interpolationmode  none
attr title  "collision, count"
scalar Topo.s3.etherMAC[3] 	passedUpPk:count 	30
attr interpolationmode  none
attr source  packetSentToUpper
attr title  "packets passed to higher layer, count"
scalar Topo.s3.etherMAC[3] 	passedUpPk:sum(packetBytes) 	1920
attr interpolationmode  none
attr source  packetSentToUpper
attr title  "packets passed to higher layer, sum(packetBytes)"
scalar Topo.s3.open_Flow_Processing 	droppedPkt:last 	-nan
attr source  droppedPkt
scalar Topo.s4.networkLayer.arp 	failedARPResolution:count 	0
attr title  "ARP failed resolutions, count"
scalar Topo.s4.networkLayer.arp 	completedARPResolution:count 	1
attr title  "ARP completed resolutions, count"
scalar Topo.s4.networkLayer.arp 	initiatedARPResolution:count 	1
attr title  "ARP initiated resolutions, count"
scalar Topo.s4.networkLayer.arp 	sentReply:count 	0
attr title  "ARP replies sent, count"
scalar Topo.s4.networkLayer.arp 	sentReq:count 	1
attr title  "ARP request sent, count"
scalar Topo.s4.eth[0].mac 	"simulated time" 	26.000010456
scalar Topo.s4.eth[0].mac 	full-duplex 	1
scalar Topo.s4.eth[0].mac 	"frames/sec sent" 	0.3461537069468
scalar Topo.s4.eth[0].mac 	"frames/sec rcvd" 	0.30769218395271
scalar Topo.s4.eth[0].mac 	"bits/sec sent" 	177.23069795676
scalar Topo.s4.eth[0].mac 	"bits/sec rcvd" 	157.53839818379
scalar Topo.s4.eth[0].mac 	"rx channel idle (%)" 	99.99998227693
scalar Topo.s4.eth[0].mac 	"rx channel utilization (%)" 	1.7723069795676e-05
scalar Topo.s4.eth[0].mac 	droppedPkNotForUs:count 	0
attr interpolationmode  none
attr source  dropPkNotForUs
attr title  "packets dropped/not for us, count"
scalar Topo.s4.eth[0].mac 	droppedPkNotForUs:sum(packetBytes) 	0
attr interpolationmode  none
attr source  dropPkNotForUs
attr title  "packets dropped/not for us, sum(packetBytes)"
scalar Topo.s4.eth[0].mac 	droppedPkIfaceDown:count 	0
attr interpolationmode  none
attr source  dropPkIfaceDown
attr title  "packets dropped/interface down, count"
scalar Topo.s4.eth[0].mac 	droppedPkIfaceDown:sum(packetBytes) 	0
attr interpolationmode  none
attr source  dropPkIfaceDown
attr title  "packets dropped/interface down, sum(packetBytes)"
scalar Topo.s4.eth[0].mac 	droppedPkBitError:count 	0
attr interpolationmode  none
attr source  dropPkBitError
attr title  "packets dropped/bit error, count"
scalar Topo.s4.eth[0].mac 	droppedPkBitError:sum(packetBytes) 	0
attr interpolationmode  none
attr source  dropPkBitError
attr title  "packets dropped/bit error, sum(packetBytes)"
scalar Topo.s4.eth[0].mac 	rxPkFromHL:count 	9
attr interpolationmode  none
attr source  rxPkFromHL
attr title  "packet bytes from higher layer, count"
scalar Topo.s4.eth[0].mac 	rxPkFromHL:sum(packetBytes) 	576
attr interpolationmode  none
attr source  rxPkFromHL
attr title  "packet bytes from higher layer, sum(packetBytes)"
scalar Topo.s4.eth[0].mac 	rxPausePkUnits:count 	0
attr interpolationmode  none
attr title  "pause units received, count"
scalar Topo.s4.eth[0].mac 	rxPausePkUnits:sum 	0
attr interpolationmode  none
attr title  "pause units received, sum"
scalar Topo.s4.eth[0].mac 	txPausePkUnits:count 	0
attr interpolationmode  none
attr title  "pause units sent, count"
scalar Topo.s4.eth[0].mac 	txPausePkUnits:sum 	0
attr interpolationmode  none
attr title  "pause units sent, sum"
scalar Topo.s4.eth[0].mac 	rxPkOk:count 	8
attr interpolationmode  none
attr source  rxPkOk
attr title  "packets received OK, count"
scalar Topo.s4.eth[0].mac 	rxPkOk:sum(packetBytes) 	512
attr interpolationmode  none
attr source  rxPkOk
attr title  "packets received OK, sum(packetBytes)"
scalar Topo.s4.eth[0].mac 	txPk:count 	9
attr interpolationmode  none
attr source  txPk
attr title  "packets transmitted, count"
scalar Topo.s4.eth[0].mac 	txPk:sum(packetBytes) 	576
attr interpolationmode  none
attr source  txPk
attr title  "packets transmitted, sum(packetBytes)"
scalar Topo.s4.eth[0].mac 	passedUpPk:count 	8
attr interpolationmode  none
attr source  packetSentToUpper
attr title  "packets passed to higher layer, count"
scalar Topo.s4.eth[0].mac 	passedUpPk:sum(packetBytes) 	512
attr interpolationmode  none
attr source  packetSentToUpper
attr title  "packets passed to higher layer, sum(packetBytes)"
scalar Topo.s4.eth[0].encap 	pauseSent:count 	0
attr title  "pause sent, count"
scalar Topo.s4.eth[0].encap 	pauseSent:sum 	0
attr title  "pause sent, sum"
scalar Topo.s4.eth[0].encap 	decapPk:count 	8
attr interpolationmode  none
attr source  decapPk
attr title  "packets decapsulated, count"
scalar Topo.s4.eth[0].encap 	decapPk:sum(packetBytes) 	317
attr interpolationmode  none
attr source  decapPk
attr title  "packets decapsulated, sum(packetBytes)"
scalar Topo.s4.eth[0].encap 	encapPk:count 	9
attr interpolationmode  none
attr source  encapPk
attr title  "packets encapsulated, count"
scalar Topo.s4.eth[0].encap 	encapPk:sum(packetBytes) 	353
attr interpolationmode  none
attr source  encapPk
attr title  "packets encapsulated, sum(packetBytes)"
scalar Topo.s4.etherMAC[0] 	"simulated time" 	26.000010456
scalar Topo.s4.etherMAC[0] 	full-duplex 	1
scalar Topo.s4.etherMAC[0] 	"frames/sec sent" 	1.730768534734
scalar Topo.s4.etherMAC[0] 	"frames/sec rcvd" 	1.6538454887458
scalar Topo.s4.etherMAC[0] 	"bits/sec sent" 	886.15348978381
scalar Topo.s4.etherMAC[0] 	"bits/sec rcvd" 	846.76889023786
scalar Topo.s4.etherMAC[0] 	"rx channel idle (%)" 	99.9999047385
scalar Topo.s4.etherMAC[0] 	"rx channel utilization (%)" 	9.526150015176e-05
scalar Topo.s4.etherMAC[0] 	"rx channel collision (%)" 	0
scalar Topo.s4.etherMAC[0] 	collisions 	0
scalar Topo.s4.etherMAC[0] 	backoffs 	0
scalar Topo.s4.etherMAC[0] 	droppedPkNotForUs:count 	0
attr interpolationmode  none
attr source  dropPkNotForUs
attr title  "packets dropped/not for us, count"
scalar Topo.s4.etherMAC[0] 	droppedPkNotForUs:sum(packetBytes) 	0
attr interpolationmode  none
attr source  dropPkNotForUs
attr title  "packets dropped/not for us, sum(packetBytes)"
scalar Topo.s4.etherMAC[0] 	droppedPkIfaceDown:count 	0
attr interpolationmode  none
attr source  dropPkIfaceDown
attr title  "packets dropped/interface down, count"
scalar Topo.s4.etherMAC[0] 	droppedPkIfaceDown:sum(packetBytes) 	0
attr interpolationmode  none
attr source  dropPkIfaceDown
attr title  "packets dropped/interface down, sum(packetBytes)"
scalar Topo.s4.etherMAC[0] 	droppedPkBitError:count 	0
attr interpolationmode  none
attr source  dropPkBitError
attr title  "packets dropped/bit error, count"
scalar Topo.s4.etherMAC[0] 	droppedPkBitError:sum(packetBytes) 	0
attr interpolationmode  none
attr source  dropPkBitError
attr title  "packets dropped/bit error, sum(packetBytes)"
scalar Topo.s4.etherMAC[0] 	rxPkFromHL:count 	45
attr interpolationmode  none
attr source  rxPkFromHL
attr title  "packet bytes from higher layer, count"
scalar Topo.s4.etherMAC[0] 	rxPkFromHL:sum(packetBytes) 	2880
attr interpolationmode  none
attr source  rxPkFromHL
attr title  "packet bytes from higher layer, sum(packetBytes)"
scalar Topo.s4.etherMAC[0] 	rxPausePkUnits:count 	0
attr interpolationmode  none
attr title  "pause units received, count"
scalar Topo.s4.etherMAC[0] 	rxPausePkUnits:sum 	0
attr interpolationmode  none
attr title  "pause units received, sum"
scalar Topo.s4.etherMAC[0] 	txPausePkUnits:count 	0
attr interpolationmode  none
attr title  "pause units sent, count"
scalar Topo.s4.etherMAC[0] 	txPausePkUnits:sum 	0
attr interpolationmode  none
attr title  "pause units sent, sum"
scalar Topo.s4.etherMAC[0] 	rxPkOk:count 	43
attr interpolationmode  none
attr source  rxPkOk
attr title  "packets received OK, count"
scalar Topo.s4.etherMAC[0] 	rxPkOk:sum(packetBytes) 	2752
attr interpolationmode  none
attr source  rxPkOk
attr title  "packets received OK, sum(packetBytes)"
scalar Topo.s4.etherMAC[0] 	txPk:count 	45
attr interpolationmode  none
attr source  txPk
attr title  "packets transmitted, count"
scalar Topo.s4.etherMAC[0] 	txPk:sum(packetBytes) 	2880
attr interpolationmode  none
attr source  txPk
attr title  "packets transmitted, sum(packetBytes)"
scalar Topo.s4.etherMAC[0] 	backoff:count 	0
attr interpolationmode  none
attr title  "backoff, count"
scalar Topo.s4.etherMAC[0] 	collision:count 	0
attr interpolationmode  none
attr title  "collision, count"
scalar Topo.s4.etherMAC[0] 	passedUpPk:count 	43
attr interpolationmode  none
attr source  packetSentToUpper
attr title  "packets passed to higher layer, count"
scalar Topo.s4.etherMAC[0] 	passedUpPk:sum(packetBytes) 	2752
attr interpolationmode  none
attr source  packetSentToUpper
attr title  "packets passed to higher layer, sum(packetBytes)"
scalar Topo.s4.etherMAC[1] 	"simulated time" 	26.000010456
scalar Topo.s4.etherMAC[1] 	full-duplex 	1
scalar Topo.s4.etherMAC[1] 	"frames/sec sent" 	1.6153839657517
scalar Topo.s4.etherMAC[1] 	"frames/sec rcvd" 	1.730768534734
scalar Topo.s4.etherMAC[1] 	"bits/sec sent" 	827.07659046489
scalar Topo.s4.etherMAC[1] 	"bits/sec rcvd" 	886.15348978381
scalar Topo.s4.etherMAC[1] 	"rx channel idle (%)" 	99.999900307732
scalar Topo.s4.etherMAC[1] 	"rx channel utilization (%)" 	9.9692267600679e-05
scalar Topo.s4.etherMAC[1] 	"rx channel collision (%)" 	0
scalar Topo.s4.etherMAC[1] 	collisions 	0
scalar Topo.s4.etherMAC[1] 	backoffs 	0
scalar Topo.s4.etherMAC[1] 	droppedPkNotForUs:count 	0
attr interpolationmode  none
attr source  dropPkNotForUs
attr title  "packets dropped/not for us, count"
scalar Topo.s4.etherMAC[1] 	droppedPkNotForUs:sum(packetBytes) 	0
attr interpolationmode  none
attr source  dropPkNotForUs
attr title  "packets dropped/not for us, sum(packetBytes)"
scalar Topo.s4.etherMAC[1] 	droppedPkIfaceDown:count 	0
attr interpolationmode  none
attr source  dropPkIfaceDown
attr title  "packets dropped/interface down, count"
scalar Topo.s4.etherMAC[1] 	droppedPkIfaceDown:sum(packetBytes) 	0
attr interpolationmode  none
attr source  dropPkIfaceDown
attr title  "packets dropped/interface down, sum(packetBytes)"
scalar Topo.s4.etherMAC[1] 	droppedPkBitError:count 	0
attr interpolationmode  none
attr source  dropPkBitError
attr title  "packets dropped/bit error, count"
scalar Topo.s4.etherMAC[1] 	droppedPkBitError:sum(packetBytes) 	0
attr interpolationmode  none
attr source  dropPkBitError
attr title  "packets dropped/bit error, sum(packetBytes)"
scalar Topo.s4.etherMAC[1] 	rxPkFromHL:count 	43
attr interpolationmode  none
attr source  rxPkFromHL
attr title  "packet bytes from higher layer, count"
scalar Topo.s4.etherMAC[1] 	rxPkFromHL:sum(packetBytes) 	2752
attr interpolationmode  none
attr source  rxPkFromHL
attr title  "packet bytes from higher layer, sum(packetBytes)"
scalar Topo.s4.etherMAC[1] 	rxPausePkUnits:count 	0
attr interpolationmode  none
attr title  "pause units received, count"
scalar Topo.s4.etherMAC[1] 	rxPausePkUnits:sum 	0
attr interpolationmode  none
attr title  "pause units received, sum"
scalar Topo.s4.etherMAC[1] 	txPausePkUnits:count 	0
attr interpolationmode  none
attr title  "pause units sent, count"
scalar Topo.s4.etherMAC[1] 	txPausePkUnits:sum 	0
attr interpolationmode  none
attr title  "pause units sent, sum"
scalar Topo.s4.etherMAC[1] 	rxPkOk:count 	45
attr interpolationmode  none
attr source  rxPkOk
attr title  "packets received OK, count"
scalar Topo.s4.etherMAC[1] 	rxPkOk:sum(packetBytes) 	2880
attr interpolationmode  none
attr source  rxPkOk
attr title  "packets received OK, sum(packetBytes)"
scalar Topo.s4.etherMAC[1] 	txPk:count 	42
attr interpolationmode  none
attr source  txPk
attr title  "packets transmitted, count"
scalar Topo.s4.etherMAC[1] 	txPk:sum(packetBytes) 	2688
attr interpolationmode  none
attr source  txPk
attr title  "packets transmitted, sum(packetBytes)"
scalar Topo.s4.etherMAC[1] 	backoff:count 	0
attr interpolationmode  none
attr title  "backoff, count"
scalar Topo.s4.etherMAC[1] 	collision:count 	0
attr interpolationmode  none
attr title  "collision, count"
scalar Topo.s4.etherMAC[1] 	passedUpPk:count 	45
attr interpolationmode  none
attr source  packetSentToUpper
attr title  "packets passed to higher layer, count"
scalar Topo.s4.etherMAC[1] 	passedUpPk:sum(packetBytes) 	2880
attr interpolationmode  none
attr source  packetSentToUpper
attr title  "packets passed to higher layer, sum(packetBytes)"
scalar Topo.s4.etherMAC[2] 	"simulated time" 	26.000010456
scalar Topo.s4.etherMAC[2] 	full-duplex 	1
scalar Topo.s4.etherMAC[2] 	"frames/sec sent" 	0
scalar Topo.s4.etherMAC[2] 	"frames/sec rcvd" 	0
scalar Topo.s4.etherMAC[2] 	"bits/sec sent" 	0
scalar Topo.s4.etherMAC[2] 	"bits/sec rcvd" 	0
scalar Topo.s4.etherMAC[2] 	"rx channel idle (%)" 	100
scalar Topo.s4.etherMAC[2] 	"rx channel utilization (%)" 	0
scalar Topo.s4.etherMAC[2] 	"rx channel collision (%)" 	0
scalar Topo.s4.etherMAC[2] 	collisions 	0
scalar Topo.s4.etherMAC[2] 	backoffs 	0
scalar Topo.s4.etherMAC[2] 	droppedPkNotForUs:count 	0
attr interpolationmode  none
attr source  dropPkNotForUs
attr title  "packets dropped/not for us, count"
scalar Topo.s4.etherMAC[2] 	droppedPkNotForUs:sum(packetBytes) 	0
attr interpolationmode  none
attr source  dropPkNotForUs
attr title  "packets dropped/not for us, sum(packetBytes)"
scalar Topo.s4.etherMAC[2] 	droppedPkIfaceDown:count 	0
attr interpolationmode  none
attr source  dropPkIfaceDown
attr title  "packets dropped/interface down, count"
scalar Topo.s4.etherMAC[2] 	droppedPkIfaceDown:sum(packetBytes) 	0
attr interpolationmode  none
attr source  dropPkIfaceDown
attr title  "packets dropped/interface down, sum(packetBytes)"
scalar Topo.s4.etherMAC[2] 	droppedPkBitError:count 	0
attr interpolationmode  none
attr source  dropPkBitError
attr title  "packets dropped/bit error, count"
scalar Topo.s4.etherMAC[2] 	droppedPkBitError:sum(packetBytes) 	0
attr interpolationmode  none
attr source  dropPkBitError
attr title  "packets dropped/bit error, sum(packetBytes)"
scalar Topo.s4.etherMAC[2] 	rxPkFromHL:count 	0
attr interpolationmode  none
attr source  rxPkFromHL
attr title  "packet bytes from higher layer, count"
scalar Topo.s4.etherMAC[2] 	rxPkFromHL:sum(packetBytes) 	0
attr interpolationmode  none
attr source  rxPkFromHL
attr title  "packet bytes from higher layer, sum(packetBytes)"
scalar Topo.s4.etherMAC[2] 	rxPausePkUnits:count 	0
attr interpolationmode  none
attr title  "pause units received, count"
scalar Topo.s4.etherMAC[2] 	rxPausePkUnits:sum 	0
attr interpolationmode  none
attr title  "pause units received, sum"
scalar Topo.s4.etherMAC[2] 	txPausePkUnits:count 	0
attr interpolationmode  none
attr title  "pause units sent, count"
scalar Topo.s4.etherMAC[2] 	txPausePkUnits:sum 	0
attr interpolationmode  none
attr title  "pause units sent, sum"
scalar Topo.s4.etherMAC[2] 	rxPkOk:count 	0
attr interpolationmode  none
attr source  rxPkOk
attr title  "packets received OK, count"
scalar Topo.s4.etherMAC[2] 	rxPkOk:sum(packetBytes) 	0
attr interpolationmode  none
attr source  rxPkOk
attr title  "packets received OK, sum(packetBytes)"
scalar Topo.s4.etherMAC[2] 	txPk:count 	0
attr interpolationmode  none
attr source  txPk
attr title  "packets transmitted, count"
scalar Topo.s4.etherMAC[2] 	txPk:sum(packetBytes) 	0
attr interpolationmode  none
attr source  txPk
attr title  "packets transmitted, sum(packetBytes)"
scalar Topo.s4.etherMAC[2] 	backoff:count 	0
attr interpolationmode  none
attr title  "backoff, count"
scalar Topo.s4.etherMAC[2] 	collision:count 	0
attr interpolationmode  none
attr title  "collision, count"
scalar Topo.s4.etherMAC[2] 	passedUpPk:count 	0
attr interpolationmode  none
attr source  packetSentToUpper
attr title  "packets passed to higher layer, count"
scalar Topo.s4.etherMAC[2] 	passedUpPk:sum(packetBytes) 	0
attr interpolationmode  none
attr source  packetSentToUpper
attr title  "packets passed to higher layer, sum(packetBytes)"
scalar Topo.s4.open_Flow_Processing 	droppedPkt:last 	-nan
attr source  droppedPkt
scalar Topo.s5.networkLayer.arp 	failedARPResolution:count 	0
attr title  "ARP failed resolutions, count"
scalar Topo.s5.networkLayer.arp 	completedARPResolution:count 	1
attr title  "ARP completed resolutions, count"
scalar Topo.s5.networkLayer.arp 	initiatedARPResolution:count 	1
attr title  "ARP initiated resolutions, count"
scalar Topo.s5.networkLayer.arp 	sentReply:count 	0
attr title  "ARP replies sent, count"
scalar Topo.s5.networkLayer.arp 	sentReq:count 	1
attr title  "ARP request sent, count"
scalar Topo.s5.eth[0].mac 	"simulated time" 	26.000010456
scalar Topo.s5.eth[0].mac 	full-duplex 	1
scalar Topo.s5.eth[0].mac 	"frames/sec sent" 	0.3461537069468
scalar Topo.s5.eth[0].mac 	"frames/sec rcvd" 	0.30769218395271
scalar Topo.s5.eth[0].mac 	"bits/sec sent" 	177.23069795676
scalar Topo.s5.eth[0].mac 	"bits/sec rcvd" 	157.53839818379
scalar Topo.s5.eth[0].mac 	"rx channel idle (%)" 	99.99998227693
scalar Topo.s5.eth[0].mac 	"rx channel utilization (%)" 	1.7723069795676e-05
scalar Topo.s5.eth[0].mac 	droppedPkNotForUs:count 	0
attr interpolationmode  none
attr source  dropPkNotForUs
attr title  "packets dropped/not for us, count"
scalar Topo.s5.eth[0].mac 	droppedPkNotForUs:sum(packetBytes) 	0
attr interpolationmode  none
attr source  dropPkNotForUs
attr title  "packets dropped/not for us, sum(packetBytes)"
scalar Topo.s5.eth[0].mac 	droppedPkIfaceDown:count 	0
attr interpolationmode  none
attr source  dropPkIfaceDown
attr title  "packets dropped/interface down, count"
scalar Topo.s5.eth[0].mac 	droppedPkIfaceDown:sum(packetBytes) 	0
attr interpolationmode  none
attr source  dropPkIfaceDown
attr title  "packets dropped/interface down, sum(packetBytes)"
scalar Topo.s5.eth[0].mac 	droppedPkBitError:count 	0
attr interpolationmode  none
attr source  dropPkBitError
attr title  "packets dropped/bit error, count"
scalar Topo.s5.eth[0].mac 	droppedPkBitError:sum(packetBytes) 	0
attr interpolationmode  none
attr source  dropPkBitError
attr title  "packets dropped/bit error, sum(packetBytes)"
scalar Topo.s5.eth[0].mac 	rxPkFromHL:count 	9
attr interpolationmode  none
attr source  rxPkFromHL
attr title  "packet bytes from higher layer, count"
scalar Topo.s5.eth[0].mac 	rxPkFromHL:sum(packetBytes) 	576
attr interpolationmode  none
attr source  rxPkFromHL
attr title  "packet bytes from higher layer, sum(packetBytes)"
scalar Topo.s5.eth[0].mac 	rxPausePkUnits:count 	0
attr interpolationmode  none
attr title  "pause units received, count"
scalar Topo.s5.eth[0].mac 	rxPausePkUnits:sum 	0
attr interpolationmode  none
attr title  "pause units received, sum"
scalar Topo.s5.eth[0].mac 	txPausePkUnits:count 	0
attr interpolationmode  none
attr title  "pause units sent, count"
scalar Topo.s5.eth[0].mac 	txPausePkUnits:sum 	0
attr interpolationmode  none
attr title  "pause units sent, sum"
scalar Topo.s5.eth[0].mac 	rxPkOk:count 	8
attr interpolationmode  none
attr source  rxPkOk
attr title  "packets received OK, count"
scalar Topo.s5.eth[0].mac 	rxPkOk:sum(packetBytes) 	512
attr interpolationmode  none
attr source  rxPkOk
attr title  "packets received OK, sum(packetBytes)"
scalar Topo.s5.eth[0].mac 	txPk:count 	9
attr interpolationmode  none
attr source  txPk
attr title  "packets transmitted, count"
scalar Topo.s5.eth[0].mac 	txPk:sum(packetBytes) 	576
attr interpolationmode  none
attr source  txPk
attr title  "packets transmitted, sum(packetBytes)"
scalar Topo.s5.eth[0].mac 	passedUpPk:count 	8
attr interpolationmode  none
attr source  packetSentToUpper
attr title  "packets passed to higher layer, count"
scalar Topo.s5.eth[0].mac 	passedUpPk:sum(packetBytes) 	512
attr interpolationmode  none
attr source  packetSentToUpper
attr title  "packets passed to higher layer, sum(packetBytes)"
scalar Topo.s5.eth[0].encap 	pauseSent:count 	0
attr title  "pause sent, count"
scalar Topo.s5.eth[0].encap 	pauseSent:sum 	0
attr title  "pause sent, sum"
scalar Topo.s5.eth[0].encap 	decapPk:count 	8
attr interpolationmode  none
attr source  decapPk
attr title  "packets decapsulated, count"
scalar Topo.s5.eth[0].encap 	decapPk:sum(packetBytes) 	317
attr interpolationmode  none
attr source  decapPk
attr title  "packets decapsulated, sum(packetBytes)"
scalar Topo.s5.eth[0].encap 	encapPk:count 	9
attr interpolationmode  none
attr source  encapPk
attr title  "packets encapsulated, count"
scalar Topo.s5.eth[0].encap 	encapPk:sum(packetBytes) 	353
attr interpolationmode  none
attr source  encapPk
attr title  "packets encapsulated, sum(packetBytes)"
scalar Topo.s5.etherMAC[0] 	"simulated time" 	26.000010456
scalar Topo.s5.etherMAC[0] 	full-duplex 	1
scalar Topo.s5.etherMAC[0] 	"frames/sec sent" 	1.1538456898227
scalar Topo.s5.etherMAC[0] 	"frames/sec rcvd" 	1.0769226438345
scalar Topo.s5.etherMAC[0] 	"bits/sec sent" 	590.76899318921
scalar Topo.s5.etherMAC[0] 	"bits/sec rcvd" 	551.38439364326
scalar Topo.s5.etherMAC[0] 	"rx channel idle (%)" 	99.999937969256
scalar Topo.s5.etherMAC[0] 	"rx channel utilization (%)" 	6.2030744284867e-05
scalar Topo.s5.etherMAC[0] 	"rx channel collision (%)" 	0
scalar Topo.s5.etherMAC[0] 	collisions 	0
scalar Topo.s5.etherMAC[0] 	backoffs 	0
scalar Topo.s5.etherMAC[0] 	droppedPkNotForUs:count 	0
attr interpolationmode  none
attr source  dropPkNotForUs
attr title  "packets dropped/not for us, count"
scalar Topo.s5.etherMAC[0] 	droppedPkNotForUs:sum(packetBytes) 	0
attr interpolationmode  none
attr source  dropPkNotForUs
attr title  "packets dropped/not for us, sum(packetBytes)"
scalar Topo.s5.etherMAC[0] 	droppedPkIfaceDown:count 	0
attr interpolationmode  none
attr source  dropPkIfaceDown
attr title  "packets dropped/interface down, count"
scalar Topo.s5.etherMAC[0] 	droppedPkIfaceDown:sum(packetBytes) 	0
attr interpolationmode  none
attr source  dropPkIfaceDown
attr title  "packets dropped/interface down, sum(packetBytes)"
scalar Topo.s5.etherMAC[0] 	droppedPkBitError:count 	0
attr interpolationmode  none
attr source  dropPkBitError
attr title  "packets dropped/bit error, count"
scalar Topo.s5.etherMAC[0] 	droppedPkBitError:sum(packetBytes) 	0
attr interpolationmode  none
attr source  dropPkBitError
attr title  "packets dropped/bit error, sum(packetBytes)"
scalar Topo.s5.etherMAC[0] 	rxPkFromHL:count 	30
attr interpolationmode  none
attr source  rxPkFromHL
attr title  "packet bytes from higher layer, count"
scalar Topo.s5.etherMAC[0] 	rxPkFromHL:sum(packetBytes) 	1920
attr interpolationmode  none
attr source  rxPkFromHL
attr title  "packet bytes from higher layer, sum(packetBytes)"
scalar Topo.s5.etherMAC[0] 	rxPausePkUnits:count 	0
attr interpolationmode  none
attr title  "pause units received, count"
scalar Topo.s5.etherMAC[0] 	rxPausePkUnits:sum 	0
attr interpolationmode  none
attr title  "pause units received, sum"
scalar Topo.s5.etherMAC[0] 	txPausePkUnits:count 	0
attr interpolationmode  none
attr title  "pause units sent, count"
scalar Topo.s5.etherMAC[0] 	txPausePkUnits:sum 	0
attr interpolationmode  none
attr title  "pause units sent, sum"
scalar Topo.s5.etherMAC[0] 	rxPkOk:count 	28
attr interpolationmode  none
attr source  rxPkOk
attr title  "packets received OK, count"
scalar Topo.s5.etherMAC[0] 	rxPkOk:sum(packetBytes) 	1792
attr interpolationmode  none
attr source  rxPkOk
attr title  "packets received OK, sum(packetBytes)"
scalar Topo.s5.etherMAC[0] 	txPk:count 	30
attr interpolationmode  none
attr source  txPk
attr title  "packets transmitted, count"
scalar Topo.s5.etherMAC[0] 	txPk:sum(packetBytes) 	1920
attr interpolationmode  none
attr source  txPk
attr title  "packets transmitted, sum(packetBytes)"
scalar Topo.s5.etherMAC[0] 	backoff:count 	0
attr interpolationmode  none
attr title  "backoff, count"
scalar Topo.s5.etherMAC[0] 	collision:count 	0
attr interpolationmode  none
attr title  "collision, count"
scalar Topo.s5.etherMAC[0] 	passedUpPk:count 	28
attr interpolationmode  none
attr source  packetSentToUpper
attr title  "packets passed to higher layer, count"
scalar Topo.s5.etherMAC[0] 	passedUpPk:sum(packetBytes) 	1792
attr interpolationmode  none
attr source  packetSentToUpper
attr title  "packets passed to higher layer, sum(packetBytes)"
scalar Topo.s5.etherMAC[1] 	"simulated time" 	26.000010456
scalar Topo.s5.etherMAC[1] 	full-duplex 	1
scalar Topo.s5.etherMAC[1] 	"frames/sec sent" 	1.0384611208404
scalar Topo.s5.etherMAC[1] 	"frames/sec rcvd" 	1.1538456898227
scalar Topo.s5.etherMAC[1] 	"bits/sec sent" 	531.69209387029
scalar Topo.s5.etherMAC[1] 	"bits/sec rcvd" 	590.76899318921
scalar Topo.s5.etherMAC[1] 	"rx channel idle (%)" 	99.999933538488
scalar Topo.s5.etherMAC[1] 	"rx channel utilization (%)" 	6.6461511733786e-05
scalar Topo.s5.etherMAC[1] 	"rx channel collision (%)" 	0
scalar Topo.s5.etherMAC[1] 	collisions 	0
scalar Topo.s5.etherMAC[1] 	backoffs 	0
scalar Topo.s5.etherMAC[1] 	droppedPkNotForUs:count 	0
attr interpolationmode  none
attr source  dropPkNotForUs
attr title  "packets dropped/not for us, count"
scalar Topo.s5.etherMAC[1] 	droppedPkNotForUs:sum(packetBytes) 	0
attr interpolationmode  none
attr source  dropPkNotForUs
attr title  "packets dropped/not for us, sum(packetBytes)"
scalar Topo.s5.etherMAC[1] 	droppedPkIfaceDown:count 	0
attr interpolationmode  none
attr source  dropPkIfaceDown
attr title  "packets dropped/interface down, count"
scalar Topo.s5.etherMAC[1] 	droppedPkIfaceDown:sum(packetBytes) 	0
attr interpolationmode  none
attr source  dropPkIfaceDown
attr title  "packets dropped/interface down, sum(packetBytes)"
scalar Topo.s5.etherMAC[1] 	droppedPkBitError:count 	0
attr interpolationmode  none
attr source  dropPkBitError
attr title  "packets dropped/bit error, count"
scalar Topo.s5.etherMAC[1] 	droppedPkBitError:sum(packetBytes) 	0
attr interpolationmode  none
attr source  dropPkBitError
attr title  "packets dropped/bit error, sum(packetBytes)"
scalar Topo.s5.etherMAC[1] 	rxPkFromHL:count 	28
attr interpolationmode  none
attr source  rxPkFromHL
attr title  "packet bytes from higher layer, count"
scalar Topo.s5.etherMAC[1] 	rxPkFromHL:sum(packetBytes) 	1792
attr interpolationmode  none
attr source  rxPkFromHL
attr title  "packet bytes from higher layer, sum(packetBytes)"
scalar Topo.s5.etherMAC[1] 	rxPausePkUnits:count 	0
attr interpolationmode  none
attr title  "pause units received, count"
scalar Topo.s5.etherMAC[1] 	rxPausePkUnits:sum 	0
attr interpolationmode  none
attr title  "pause units received, sum"
scalar Topo.s5.etherMAC[1] 	txPausePkUnits:count 	0
attr interpolationmode  none
attr title  "pause units sent, count"
scalar Topo.s5.etherMAC[1] 	txPausePkUnits:sum 	0
attr interpolationmode  none
attr title  "pause units sent, sum"
scalar Topo.s5.etherMAC[1] 	rxPkOk:count 	30
attr interpolationmode  none
attr source  rxPkOk
attr title  "packets received OK, count"
scalar Topo.s5.etherMAC[1] 	rxPkOk:sum(packetBytes) 	1920
attr interpolationmode  none
attr source  rxPkOk
attr title  "packets received OK, sum(packetBytes)"
scalar Topo.s5.etherMAC[1] 	txPk:count 	27
attr interpolationmode  none
attr source  txPk
[...]
attr title  "packets received from higher layer, sum(packetBytes)"
scalar Topo.DC2.lo0.lo 	passedUpPk:count 	0
attr interpolationmode  none
attr source  packetSentToUpper
attr title  "packets passed to higher layer, count"
scalar Topo.DC2.lo0.lo 	passedUpPk:sum(packetBytes) 	0
attr interpolationmode  none
attr source  packetSentToUpper
attr title  "packets passed to higher layer, sum(packetBytes)"
scalar Topo.DC2.eth[0].mac 	"simulated time" 	26.000010456
scalar Topo.DC2.eth[0].mac 	full-duplex 	1
scalar Topo.DC2.eth[0].mac 	"frames/sec sent" 	0.61538436790543
scalar Topo.DC2.eth[0].mac 	"frames/sec rcvd" 	0.53846132191725
scalar Topo.DC2.eth[0].mac 	"bits/sec sent" 	315.07679636758
scalar Topo.DC2.eth[0].mac 	"bits/sec rcvd" 	275.69219682163
scalar Topo.DC2.eth[0].mac 	"rx channel idle (%)" 	99.999968984628
scalar Topo.DC2.eth[0].mac 	"rx channel utilization (%)" 	3.1015372142433e-05
scalar Topo.DC2.eth[0].mac 	droppedPkNotForUs:count 	0
attr interpolationmode  none
attr source  dropPkNotForUs
attr title  "packets dropped/not for us, count"
scalar Topo.DC2.eth[0].mac 	droppedPkNotForUs:sum(packetBytes) 	0
attr interpolationmode  none
attr source  dropPkNotForUs
attr title  "packets dropped/not for us, sum(packetBytes)"
scalar Topo.DC2.eth[0].mac 	droppedPkIfaceDown:count 	0
attr interpolationmode  none
attr source  dropPkIfaceDown
attr title  "packets dropped/interface down, count"
scalar Topo.DC2.eth[0].mac 	droppedPkIfaceDown:sum(packetBytes) 	0
attr interpolationmode  none
attr source  dropPkIfaceDown
attr title  "packets dropped/interface down, sum(packetBytes)"
scalar Topo.DC2.eth[0].mac 	droppedPkBitError:count 	0
attr interpolationmode  none
attr source  dropPkBitError
attr title  "packets dropped/bit error, count"
scalar Topo.DC2.eth[0].mac 	droppedPkBitError:sum(packetBytes) 	0
attr interpolationmode  none
attr source  dropPkBitError
attr title  "packets dropped/bit error, sum(packetBytes)"
scalar Topo.DC2.eth[0].mac 	rxPkFromHL:count 	16
attr interpolationmode  none
attr source  rxPkFromHL
attr title  "packet bytes from higher layer, count"
scalar Topo.DC2.eth[0].mac 	rxPkFromHL:sum(packetBytes) 	1024
attr interpolationmode  none
attr source  rxPkFromHL
attr title  "packet bytes from higher layer, sum(packetBytes)"
scalar Topo.DC2.eth[0].mac 	rxPausePkUnits:count 	0
attr interpolationmode  none
attr title  "pause units received, count"
scalar Topo.DC2.eth[0].mac 	rxPausePkUnits:sum 	0
attr interpolationmode  none
attr title  "pause units received, sum"
scalar Topo.DC2.eth[0].mac 	txPausePkUnits:count 	0
attr interpolationmode  none
attr title  "pause units sent, count"
scalar Topo.DC2.eth[0].mac 	txPausePkUnits:sum 	0
attr interpolationmode  none
attr title  "pause units sent, sum"
scalar Topo.DC2.eth[0].mac 	rxPkOk:count 	14
attr interpolationmode  none
attr source  rxPkOk
attr title  "packets received OK, count"
scalar Topo.DC2.eth[0].mac 	rxPkOk:sum(packetBytes) 	896
attr interpolationmode  none
attr source  rxPkOk
attr title  "packets received OK, sum(packetBytes)"
scalar Topo.DC2.eth[0].mac 	txPk:count 	16
attr interpolationmode  none
attr source  txPk
attr title  "packets transmitted, count"
scalar Topo.DC2.eth[0].mac 	txPk:sum(packetBytes) 	1024
attr interpolationmode  none
attr source  txPk
attr title  "packets transmitted, sum(packetBytes)"
scalar Topo.DC2.eth[0].mac 	passedUpPk:count 	14
attr interpolationmode  none
attr source  packetSentToUpper
attr title  "packets passed to higher layer, count"
scalar Topo.DC2.eth[0].mac 	passedUpPk:sum(packetBytes) 	896
attr interpolationmode  none
attr source  packetSentToUpper
attr title  "packets passed to higher layer, sum(packetBytes)"
scalar Topo.DC2.eth[0].encap 	pauseSent:count 	0
attr title  "pause sent, count"
scalar Topo.DC2.eth[0].encap 	pauseSent:sum 	0
attr title  "pause sent, sum"
scalar Topo.DC2.eth[0].encap 	decapPk:count 	14
attr interpolationmode  none
attr source  decapPk
attr title  "packets decapsulated, count"
scalar Topo.DC2.eth[0].encap 	decapPk:sum(packetBytes) 	524
attr interpolationmode  none
attr source  decapPk
attr title  "packets decapsulated, sum(packetBytes)"
scalar Topo.DC2.eth[0].encap 	encapPk:count 	16
attr interpolationmode  none
attr source  encapPk
attr title  "packets encapsulated, count"
scalar Topo.DC2.eth[0].encap 	encapPk:sum(packetBytes) 	645
attr interpolationmode  none
attr source  encapPk
attr title  "packets encapsulated, sum(packetBytes)"
scalar Topo.DC2.data_concentrator 	rcvdPk:count 	0
attr interpolationmode  none
attr source  rcvdPk
attr title  "packets received, count"
scalar Topo.DC2.data_concentrator 	rcvdPk:sum(packetBytes) 	0
attr interpolationmode  none
attr source  rcvdPk
attr title  "packets received, sum(packetBytes)"
statistic Topo.DC2.data_concentrator 	endToEndDelay:histogram
field count 0
field mean -nan
field stddev -nan
field sum 0
field sqrsum 0
field min -nan
field max -nan
attr interpolationmode  none
attr source  messageAge(rcvdPk)
attr title  "end-to-end delay, histogram"
attr unit  s
bin	-INF	0
bin	-0.5	0
bin	-0.46666666666667	0
bin	-0.43333333333333	0
bin	-0.4	0
bin	-0.36666666666667	0
bin	-0.33333333333333	0
bin	-0.3	0
bin	-0.26666666666667	0
bin	-0.23333333333333	0
bin	-0.2	0
bin	-0.16666666666667	0
bin	-0.13333333333333	0
bin	-0.1	0
bin	-0.066666666666667	0
bin	-0.033333333333333	0
bin	0	0
bin	0.033333333333333	0
bin	0.066666666666667	0
bin	0.1	0
bin	0.13333333333333	0
bin	0.16666666666667	0
bin	0.2	0
bin	0.23333333333333	0
bin	0.26666666666667	0
bin	0.3	0
bin	0.33333333333333	0
bin	0.36666666666667	0
bin	0.4	0
bin	0.43333333333333	0
bin	0.46666666666667	0
bin	0.5	0
scalar Topo.DC2.data_concentrator 	sentPk:count 	13
attr interpolationmode  none
attr source  sentPk
attr title  "packets sent, count"
scalar Topo.DC2.data_concentrator 	sentPk:sum(packetBytes) 	13
attr interpolationmode  none
attr source  sentPk
attr title  "packets sent, sum(packetBytes)"
scalar Topo.DC3.networkLayer.arp 	failedARPResolution:count 	0
attr title  "ARP failed resolutions, count"
scalar Topo.DC3.networkLayer.arp 	completedARPResolution:count 	1
attr title  "ARP completed resolutions, count"
scalar Topo.DC3.networkLayer.arp 	initiatedARPResolution:count 	1
attr title  "ARP initiated resolutions, count"
scalar Topo.DC3.networkLayer.arp 	sentReply:count 	0
attr title  "ARP replies sent, count"
scalar Topo.DC3.networkLayer.arp 	sentReq:count 	1
attr title  "ARP request sent, count"
scalar Topo.DC3.lo0.lo 	droppedPkBitError:count 	0
attr interpolationmode  none
attr source  dropPkBitError
attr title  "packets dropped/bit error, count"
scalar Topo.DC3.lo0.lo 	droppedPkBitError:sum(packetBytes) 	0
attr interpolationmode  none
attr source  dropPkBitError
attr title  "packets dropped/bit error, sum(packetBytes)"
scalar Topo.DC3.lo0.lo 	rcvdPkFromHL:count 	0
attr interpolationmode  none
attr source  packetReceivedFromUpper
attr title  "packets received from higher layer, count"
scalar Topo.DC3.lo0.lo 	rcvdPkFromHL:sum(packetBytes) 	0
attr interpolationmode  none
attr source  packetReceivedFromUpper
attr title  "packets received from higher layer, sum(packetBytes)"
scalar Topo.DC3.lo0.lo 	passedUpPk:count 	0
attr interpolationmode  none
attr source  packetSentToUpper
attr title  "packets passed to higher layer, count"
scalar Topo.DC3.lo0.lo 	passedUpPk:sum(packetBytes) 	0
attr interpolationmode  none
attr source  packetSentToUpper
attr title  "packets passed to higher layer, sum(packetBytes)"
scalar Topo.DC3.eth[0].mac 	"simulated time" 	26.000010456
scalar Topo.DC3.eth[0].mac 	full-duplex 	1
scalar Topo.DC3.eth[0].mac 	"frames/sec sent" 	0.61538436790543
scalar Topo.DC3.eth[0].mac 	"frames/sec rcvd" 	0.53846132191725
scalar Topo.DC3.eth[0].mac 	"bits/sec sent" 	315.07679636758
scalar Topo.DC3.eth[0].mac 	"bits/sec rcvd" 	275.69219682163
scalar Topo.DC3.eth[0].mac 	"rx channel idle (%)" 	99.999968984628
scalar Topo.DC3.eth[0].mac 	"rx channel utilization (%)" 	3.1015372142433e-05
scalar Topo.DC3.eth[0].mac 	droppedPkNotForUs:count 	0
attr interpolationmode  none
attr source  dropPkNotForUs
attr title  "packets dropped/not for us, count"
scalar Topo.DC3.eth[0].mac 	droppedPkNotForUs:sum(packetBytes) 	0
attr interpolationmode  none
attr source  dropPkNotForUs
attr title  "packets dropped/not for us, sum(packetBytes)"
scalar Topo.DC3.eth[0].mac 	droppedPkIfaceDown:count 	0
attr interpolationmode  none
attr source  dropPkIfaceDown
attr title  "packets dropped/interface down, count"
scalar Topo.DC3.eth[0].mac 	droppedPkIfaceDown:sum(packetBytes) 	0
attr interpolationmode  none
attr source  dropPkIfaceDown
attr title  "packets dropped/interface down, sum(packetBytes)"
scalar Topo.DC3.eth[0].mac 	droppedPkBitError:count 	0
attr interpolationmode  none
attr source  dropPkBitError
attr title  "packets dropped/bit error, count"
scalar Topo.DC3.eth[0].mac 	droppedPkBitError:sum(packetBytes) 	0
attr interpolationmode  none
attr source  dropPkBitError
attr title  "packets dropped/bit error, sum(packetBytes)"
scalar Topo.DC3.eth[0].mac 	rxPkFromHL:count 	16
attr interpolationmode  none
attr source  rxPkFromHL
attr title  "packet bytes from higher layer, count"
scalar Topo.DC3.eth[0].mac 	rxPkFromHL:sum(packetBytes) 	1024
attr interpolationmode  none
attr source  rxPkFromHL
attr title  "packet bytes from higher layer, sum(packetBytes)"
scalar Topo.DC3.eth[0].mac 	rxPausePkUnits:count 	0
attr interpolationmode  none
attr title  "pause units received, count"
scalar Topo.DC3.eth[0].mac 	rxPausePkUnits:sum 	0
attr interpolationmode  none
attr title  "pause units received, sum"
scalar Topo.DC3.eth[0].mac 	txPausePkUnits:count 	0
attr interpolationmode  none
attr title  "pause units sent, count"
scalar Topo.DC3.eth[0].mac 	txPausePkUnits:sum 	0
attr interpolationmode  none
attr title  "pause units sent, sum"
scalar Topo.DC3.eth[0].mac 	rxPkOk:count 	14
attr interpolationmode  none
attr source  rxPkOk
attr title  "packets received OK, count"
scalar Topo.DC3.eth[0].mac 	rxPkOk:sum(packetBytes) 	896
attr interpolationmode  none
attr source  rxPkOk
attr title  "packets received OK, sum(packetBytes)"
scalar Topo.DC3.eth[0].mac 	txPk:count 	16
attr interpolationmode  none
attr source  txPk
attr title  "packets transmitted, count"
scalar Topo.DC3.eth[0].mac 	txPk:sum(packetBytes) 	1024
attr interpolationmode  none
attr source  txPk
attr title  "packets transmitted, sum(packetBytes)"
scalar Topo.DC3.eth[0].mac 	passedUpPk:count 	14
attr interpolationmode  none
attr source  packetSentToUpper
attr title  "packets passed to higher layer, count"
scalar Topo.DC3.eth[0].mac 	passedUpPk:sum(packetBytes) 	896
attr interpolationmode  none
attr source  packetSentToUpper
attr title  "packets passed to higher layer, sum(packetBytes)"
scalar Topo.DC3.eth[0].encap 	pauseSent:count 	0
attr title  "pause sent, count"
scalar Topo.DC3.eth[0].encap 	pauseSent:sum 	0
attr title  "pause sent, sum"
scalar Topo.DC3.eth[0].encap 	decapPk:count 	14
attr interpolationmode  none
attr source  decapPk
attr title  "packets decapsulated, count"
scalar Topo.DC3.eth[0].encap 	decapPk:sum(packetBytes) 	524
attr interpolationmode  none
attr source  decapPk
attr title  "packets decapsulated, sum(packetBytes)"
scalar Topo.DC3.eth[0].encap 	encapPk:count 	16
attr interpolationmode  none
attr source  encapPk
attr title  "packets encapsulated, count"
scalar Topo.DC3.eth[0].encap 	encapPk:sum(packetBytes) 	645
attr interpolationmode  none
attr source  encapPk
attr title  "packets encapsulated, sum(packetBytes)"
scalar Topo.DC3.data_concentrator 	rcvdPk:count 	0
attr interpolationmode  none
attr source  rcvdPk
attr title  "packets received, count"
scalar Topo.DC3.data_concentrator 	rcvdPk:sum(packetBytes) 	0
attr interpolationmode  none
attr source  rcvdPk
attr title  "packets received, sum(packetBytes)"
statistic Topo.DC3.data_concentrator 	endToEndDelay:histogram
field count 0
field mean -nan
field stddev -nan
field sum 0
field sqrsum 0
field min -nan
field max -nan
attr interpolationmode  none
attr source  messageAge(rcvdPk)
attr title  "end-to-end delay, histogram"
attr unit  s
bin	-INF	0
bin	-0.5	0
bin	-0.46666666666667	0
bin	-0.43333333333333	0
bin	-0.4	0
bin	-0.36666666666667	0
bin	-0.33333333333333	0
bin	-0.3	0
bin	-0.26666666666667	0
bin	-0.23333333333333	0
bin	-0.2	0
bin	-0.16666666666667	0
bin	-0.13333333333333	0
bin	-0.1	0
bin	-0.066666666666667	0
bin	-0.033333333333333	0
bin	0	0
bin	0.033333333333333	0
bin	0.066666666666667	0
bin	0.1	0
bin	0.13333333333333	0
bin	0.16666666666667	0
bin	0.2	0
bin	0.23333333333333	0
bin	0.26666666666667	0
bin	0.3	0
bin	0.33333333333333	0
bin	0.36666666666667	0
bin	0.4	0
bin	0.43333333333333	0
bin	0.46666666666667	0
bin	0.5	0
scalar Topo.DC3.data_concentrator 	sentPk:count 	13
attr interpolationmode  none
attr source  sentPk
attr title  "packets sent, count"
scalar Topo.DC3.data_concentrator 	sentPk:sum(packetBytes) 	13
attr interpolationmode  none
attr source  sentPk
attr title  "packets sent, sum(packetBytes)"
scalar Topo.DC4.networkLayer.arp 	failedARPResolution:count 	0
attr title  "ARP failed resolutions, count"
scalar Topo.DC4.networkLayer.arp 	completedARPResolution:count 	1
attr title  "ARP completed resolutions, count"
scalar Topo.DC4.networkLayer.arp 	initiatedARPResolution:count 	1
attr title  "ARP initiated resolutions, count"
scalar Topo.DC4.networkLayer.arp 	sentReply:count 	0
attr title  "ARP replies sent, count"
scalar Topo.DC4.networkLayer.arp 	sentReq:count 	1
attr title  "ARP request sent, count"
scalar Topo.DC4.lo0.lo 	droppedPkBitError:count 	0
attr interpolationmode  none
attr source  dropPkBitError
attr title  "packets dropped/bit error, count"
scalar Topo.DC4.lo0.lo 	droppedPkBitError:sum(packetBytes) 	0
attr interpolationmode  none
attr source  dropPkBitError
attr title  "packets dropped/bit error, sum(packetBytes)"
scalar Topo.DC4.lo0.lo 	rcvdPkFromHL:count 	0
attr interpolationmode  none
attr source  packetReceivedFromUpper
attr title  "packets received from higher layer, count"
scalar Topo.DC4.lo0.lo 	rcvdPkFromHL:sum(packetBytes) 	0
attr interpolationmode  none
attr source  packetReceivedFromUpper
attr title  "packets received from higher layer, sum(packetBytes)"
scalar Topo.DC4.lo0.lo 	passedUpPk:count 	0
attr interpolationmode  none
attr source  packetSentToUpper
attr title  "packets passed to higher layer, count"
scalar Topo.DC4.lo0.lo 	passedUpPk:sum(packetBytes) 	0
attr interpolationmode  none
attr source  packetSentToUpper
attr title  "packets passed to higher layer, sum(packetBytes)"
scalar Topo.DC4.eth[0].mac 	"simulated time" 	26.000010456
scalar Topo.DC4.eth[0].mac 	full-duplex 	1
scalar Topo.DC4.eth[0].mac 	"frames/sec sent" 	0.61538436790543
scalar Topo.DC4.eth[0].mac 	"frames/sec rcvd" 	0.53846132191725
scalar Topo.DC4.eth[0].mac 	"bits/sec sent" 	315.07679636758
scalar Topo.DC4.eth[0].mac 	"bits/sec rcvd" 	275.69219682163
scalar Topo.DC4.eth[0].mac 	"rx channel idle (%)" 	99.999968984628
scalar Topo.DC4.eth[0].mac 	"rx channel utilization (%)" 	3.1015372142433e-05
scalar Topo.DC4.eth[0].mac 	droppedPkNotForUs:count 	0
attr interpolationmode  none
attr source  dropPkNotForUs
attr title  "packets dropped/not for us, count"
scalar Topo.DC4.eth[0].mac 	droppedPkNotForUs:sum(packetBytes) 	0
attr interpolationmode  none
attr source  dropPkNotForUs
attr title  "packets dropped/not for us, sum(packetBytes)"
scalar Topo.DC4.eth[0].mac 	droppedPkIfaceDown:count 	0
attr interpolationmode  none
attr source  dropPkIfaceDown
attr title  "packets dropped/interface down, count"
scalar Topo.DC4.eth[0].mac 	droppedPkIfaceDown:sum(packetBytes) 	0
attr interpolationmode  none
attr source  dropPkIfaceDown
attr title  "packets dropped/interface down, sum(packetBytes)"
scalar Topo.DC4.eth[0].mac 	droppedPkBitError:count 	0
attr interpolationmode  none
attr source  dropPkBitError
attr title  "packets dropped/bit error, count"
scalar Topo.DC4.eth[0].mac 	droppedPkBitError:sum(packetBytes) 	0
attr interpolationmode  none
attr source  dropPkBitError
attr title  "packets dropped/bit error, sum(packetBytes)"
scalar Topo.DC4.eth[0].mac 	rxPkFromHL:count 	16
attr interpolationmode  none
attr source  rxPkFromHL
attr title  "packet bytes from higher layer, count"
scalar Topo.DC4.eth[0].mac 	rxPkFromHL:sum(packetBytes) 	1024
attr interpolationmode  none
attr source  rxPkFromHL
attr title  "packet bytes from higher layer, sum(packetBytes)"
scalar Topo.DC4.eth[0].mac 	rxPausePkUnits:count 	0
attr interpolationmode  none
attr title  "pause units received, count"
scalar Topo.DC4.eth[0].mac 	rxPausePkUnits:sum 	0
attr interpolationmode  none
attr title  "pause units received, sum"
scalar Topo.DC4.eth[0].mac 	txPausePkUnits:count 	0
attr interpolationmode  none
attr title  "pause units sent, count"
scalar Topo.DC4.eth[0].mac 	txPausePkUnits:sum 	0
attr interpolationmode  none
attr title  "pause units sent, sum"
scalar Topo.DC4.eth[0].mac 	rxPkOk:count 	14
attr interpolationmode  none
attr source  rxPkOk
attr title  "packets received OK, count"
scalar Topo.DC4.eth[0].mac 	rxPkOk:sum(packetBytes) 	896
attr interpolationmode  none
attr source  rxPkOk
attr title  "packets received OK, sum(packetBytes)"
scalar Topo.DC4.eth[0].mac 	txPk:count 	16
attr interpolationmode  none
attr source  txPk
attr title  "packets transmitted, count"
scalar Topo.DC4.eth[0].mac 	txPk:sum(packetBytes) 	1024
attr interpolationmode  none
attr source  txPk
attr title  "packets transmitted, sum(packetBytes)"
scalar Topo.DC4.eth[0].mac 	passedUpPk:count 	14
attr interpolationmode  none
attr source  packetSentToUpper
attr title  "packets passed to higher layer, count"
scalar Topo.DC4.eth[0].mac 	passedUpPk:sum(packetBytes) 	896
attr interpolationmode  none
attr source  packetSentToUpper
attr title  "packets passed to higher layer, sum(packetBytes)"
scalar Topo.DC4.eth[0].encap 	pauseSent:count 	0
attr title  "pause sent, count"
scalar Topo.DC4.eth[0].encap 	pauseSent:sum 	0
attr title  "pause sent, sum"
scalar Topo.DC4.eth[0].encap 	decapPk:count 	14
attr interpolationmode  none
attr source  decapPk
attr title  "packets decapsulated, count"
scalar Topo.DC4.eth[0].encap 	decapPk:sum(packetBytes) 	524
attr interpolationmode  none
attr source  decapPk
attr title  "packets decapsulated, sum(packetBytes)"
scalar Topo.DC4.eth[0].encap 	encapPk:count 	16
attr interpolationmode  none
attr source  encapPk
attr title  "packets encapsulated, count"
scalar Topo.DC4.eth[0].encap 	encapPk:sum(packetBytes) 	645
attr interpolationmode  none
attr source  encapPk
attr title  "packets encapsulated, sum(packetBytes)"
scalar Topo.DC4.data_concentrator 	rcvdPk:count 	0
attr interpolationmode  none
attr source  rcvdPk
attr title  "packets received, count"
scalar Topo.DC4.data_concentrator 	rcvdPk:sum(packetBytes) 	0
attr interpolationmode  none
attr source  rcvdPk
attr title  "packets received, sum(packetBytes)"
statistic Topo.DC4.data_concentrator 	endToEndDelay:histogram
field count 0
field mean -nan
field stddev -nan
field sum 0
field sqrsum 0
field min -nan
field max -nan
attr interpolationmode  none
attr source  messageAge(rcvdPk)
attr title  "end-to-end delay, histogram"
attr unit  s
bin	-INF	0
bin	-0.5	0
bin	-0.46666666666667	0
bin	-0.43333333333333	0
bin	-0.4	0
bin	-0.36666666666667	0
bin	-0.33333333333333	0
bin	-0.3	0
bin	-0.26666666666667	0
bin	-0.23333333333333	0
bin	-0.2	0
bin	-0.16666666666667	0
bin	-0.13333333333333	0
bin	-0.1	0
bin	-0.066666666666667	0
bin	-0.033333333333333	0
bin	0	0
bin	0.033333333333333	0
bin	0.066666666666667	0
bin	0.1	0
bin	0.13333333333333	0
bin	0.16666666666667	0
bin	0.2	0
bin	0.23333333333333	0
bin	0.26666666666667	0
bin	0.3	0
bin	0.33333333333333	0
bin	0.36666666666667	0
bin	0.4	0
bin	0.43333333333333	0
bin	0.46666666666667	0
bin	0.5	0
scalar Topo.DC4.data_concentrator 	sentPk:count 	13
attr interpolationmode  none
attr source  sentPk
attr title  "packets sent, count"
scalar Topo.DC4.data_concentrator 	sentPk:sum(packetBytes) 	13
attr interpolationmode  none
attr source  sentPk
attr title  "packets sent, sum(packetBytes)"
