version 2
run General-0-20170421-13:55:44-6298
attr configname General
attr datetime 20170421-13:55:44
attr experiment General
attr inifile omnetpp.ini
attr iterationvars ""
attr iterationvars2 $repetition=0
attr measurement ""
attr network Topo
attr processid 6298
attr repetition 0
attr replication #0
attr resultdir results
attr runnumber 0
attr seedset 0

statistic Topo.s1.networkLayer.ip 	hops:stats
field count 0
field mean -nan
field stddev -nan
field sum 0
field sqrsum 0
field min -nan
field max -nan
attr interpolationmode  none
attr source  hops
attr title  "Hops number, stats"
scalar Topo.s1.networkLayer.arp 	failedARPResolution:count 	0
attr title  "ARP failed resolutions, count"
scalar Topo.s1.networkLayer.arp 	completedARPResolution:count 	3
attr title  "ARP completed resolutions, count"
scalar Topo.s1.networkLayer.arp 	initiatedARPResolution:count 	3
attr title  "ARP initiated resolutions, count"
scalar Topo.s1.networkLayer.arp 	sentReply:count 	0
attr title  "ARP replies sent, count"
scalar Topo.s1.networkLayer.arp 	sentReq:count 	3
attr title  "ARP request sent, count"
scalar Topo.s1.eth[0].mac 	"simulated time" 	303
scalar Topo.s1.eth[0].mac 	full-duplex 	1
scalar Topo.s1.eth[0].mac 	"frames/sec sent" 	1.2706270627063
scalar Topo.s1.eth[0].mac 	"frames/sec rcvd" 	1.2673267326733
scalar Topo.s1.eth[0].mac 	"bits/sec sent" 	1130.4818481848
scalar Topo.s1.eth[0].mac 	"bits/sec rcvd" 	1131.5115511551
scalar Topo.s1.eth[0].mac 	"rx channel idle (%)" 	99.998787379538
scalar Topo.s1.eth[0].mac 	"rx channel utilization (%)" 	0.0012126204617162
scalar Topo.s1.eth[0].mac 	droppedPkNotForUs:count 	0
attr interpolationmode  none
attr source  dropPkNotForUs
attr title  "packets dropped/not for us, count"
scalar Topo.s1.eth[0].mac 	droppedPkNotForUs:sum(packetBytes) 	0
attr interpolationmode  none
attr source  dropPkNotForUs
attr title  "packets dropped/not for us, sum(packetBytes)"
scalar Topo.s1.eth[0].mac 	droppedPkIfaceDown:count 	0
attr interpolationmode  none
attr source  dropPkIfaceDown
attr title  "packets dropped/interface down, count"
scalar Topo.s1.eth[0].mac 	droppedPkIfaceDown:sum(packetBytes) 	0
attr interpolationmode  none
attr source  dropPkIfaceDown
attr title  "packets dropped/interface down, sum(packetBytes)"
scalar Topo.s1.eth[0].mac 	droppedPkBitError:count 	0
attr interpolationmode  none
attr source  dropPkBitError
attr title  "packets dropped/bit error, count"
scalar Topo.s1.eth[0].mac 	droppedPkBitError:sum(packetBytes) 	0
attr interpolationmode  none
attr source  dropPkBitError
attr title  "packets dropped/bit error, sum(packetBytes)"
scalar Topo.s1.eth[0].mac 	rxPkFromHL:count 	385
attr interpolationmode  none
attr source  rxPkFromHL
attr title  "packet bytes from higher layer, count"
scalar Topo.s1.eth[0].mac 	rxPkFromHL:sum(packetBytes) 	42817
attr interpolationmode  none
attr source  rxPkFromHL
attr title  "packet bytes from higher layer, sum(packetBytes)"
scalar Topo.s1.eth[0].mac 	rxPausePkUnits:count 	0
attr interpolationmode  none
attr title  "pause units received, count"
scalar Topo.s1.eth[0].mac 	rxPausePkUnits:sum 	0
attr interpolationmode  none
attr title  "pause units received, sum"
scalar Topo.s1.eth[0].mac 	txPausePkUnits:count 	0
attr interpolationmode  none
attr title  "pause units sent, count"
scalar Topo.s1.eth[0].mac 	txPausePkUnits:sum 	0
attr interpolationmode  none
attr title  "pause units sent, sum"
scalar Topo.s1.eth[0].mac 	rxPkOk:count 	384
attr interpolationmode  none
attr source  rxPkOk
attr title  "packets received OK, count"
scalar Topo.s1.eth[0].mac 	rxPkOk:sum(packetBytes) 	42856
attr interpolationmode  none
attr source  rxPkOk
attr title  "packets received OK, sum(packetBytes)"
scalar Topo.s1.eth[0].mac 	txPk:count 	385
attr interpolationmode  none
attr source  txPk
attr title  "packets transmitted, count"
scalar Topo.s1.eth[0].mac 	txPk:sum(packetBytes) 	42817
attr interpolationmode  none
attr source  txPk
attr title  "packets transmitted, sum(packetBytes)"
scalar Topo.s1.eth[0].mac 	passedUpPk:count 	384
attr interpolationmode  none
attr source  packetSentToUpper
attr title  "packets passed to higher layer, count"
scalar Topo.s1.eth[0].mac 	passedUpPk:sum(packetBytes) 	42856
attr interpolationmode  none
attr source  packetSentToUpper
attr title  "packets passed to higher layer, sum(packetBytes)"
scalar Topo.s1.eth[0].encap 	pauseSent:count 	0
attr title  "pause sent, count"
scalar Topo.s1.eth[0].encap 	pauseSent:sum 	0
attr title  "pause sent, sum"
scalar Topo.s1.eth[0].encap 	decapPk:count 	384
attr interpolationmode  none
attr source  decapPk
attr title  "packets decapsulated, count"
scalar Topo.s1.eth[0].encap 	decapPk:sum(packetBytes) 	34301
attr interpolationmode  none
attr source  decapPk
attr title  "packets decapsulated, sum(packetBytes)"
scalar Topo.s1.eth[0].encap 	encapPk:count 	385
attr interpolationmode  none
attr source  encapPk
attr title  "packets encapsulated, count"
scalar Topo.s1.eth[0].encap 	encapPk:sum(packetBytes) 	34225
attr interpolationmode  none
attr source  encapPk
attr title  "packets encapsulated, sum(packetBytes)"
scalar Topo.s1.etherMAC[0] 	"simulated time" 	303
scalar Topo.s1.etherMAC[0] 	full-duplex 	1
scalar Topo.s1.etherMAC[0] 	"frames/sec sent" 	4.049504950495
scalar Topo.s1.etherMAC[0] 	"frames/sec rcvd" 	4.029702970297
scalar Topo.s1.etherMAC[0] 	"bits/sec sent" 	15084.567656766
scalar Topo.s1.etherMAC[0] 	"bits/sec rcvd" 	2063.2079207921
scalar Topo.s1.etherMAC[0] 	"rx channel idle (%)" 	99.997678891089
scalar Topo.s1.etherMAC[0] 	"rx channel utilization (%)" 	0.0023211089108911
scalar Topo.s1.etherMAC[0] 	"rx channel collision (%)" 	0
scalar Topo.s1.etherMAC[0] 	collisions 	0
scalar Topo.s1.etherMAC[0] 	backoffs 	0
scalar Topo.s1.etherMAC[0] 	droppedPkNotForUs:count 	0
attr interpolationmode  none
attr source  dropPkNotForUs
attr title  "packets dropped/not for us, count"
scalar Topo.s1.etherMAC[0] 	droppedPkNotForUs:sum(packetBytes) 	0
attr interpolationmode  none
attr source  dropPkNotForUs
attr title  "packets dropped/not for us, sum(packetBytes)"
scalar Topo.s1.etherMAC[0] 	droppedPkIfaceDown:count 	0
attr interpolationmode  none
attr source  dropPkIfaceDown
attr title  "packets dropped/interface down, count"
scalar Topo.s1.etherMAC[0] 	droppedPkIfaceDown:sum(packetBytes) 	0
attr interpolationmode  none
attr source  dropPkIfaceDown
attr title  "packets dropped/interface down, sum(packetBytes)"
scalar Topo.s1.etherMAC[0] 	droppedPkBitError:count 	0
attr interpolationmode  none
attr source  dropPkBitError
attr title  "packets dropped/bit error, count"
scalar Topo.s1.etherMAC[0] 	droppedPkBitError:sum(packetBytes) 	0
attr interpolationmode  none
attr source  dropPkBitError
attr title  "packets dropped/bit error, sum(packetBytes)"
scalar Topo.s1.etherMAC[0] 	rxPkFromHL:count 	1227
attr interpolationmode  none
attr source  rxPkFromHL
attr title  "packet bytes from higher layer, count"
scalar Topo.s1.etherMAC[0] 	rxPkFromHL:sum(packetBytes) 	571328
attr interpolationmode  none
attr source  rxPkFromHL
attr title  "packet bytes from higher layer, sum(packetBytes)"
scalar Topo.s1.etherMAC[0] 	rxPausePkUnits:count 	0
attr interpolationmode  none
attr title  "pause units received, count"
scalar Topo.s1.etherMAC[0] 	rxPausePkUnits:sum 	0
attr interpolationmode  none
attr title  "pause units received, sum"
scalar Topo.s1.etherMAC[0] 	txPausePkUnits:count 	0
attr interpolationmode  none
attr title  "pause units sent, count"
scalar Topo.s1.etherMAC[0] 	txPausePkUnits:sum 	0
attr interpolationmode  none
attr title  "pause units sent, sum"
scalar Topo.s1.etherMAC[0] 	rxPkOk:count 	1221
attr interpolationmode  none
attr source  rxPkOk
attr title  "packets received OK, count"
scalar Topo.s1.etherMAC[0] 	rxPkOk:sum(packetBytes) 	78144
attr interpolationmode  none
attr source  rxPkOk
attr title  "packets received OK, sum(packetBytes)"
scalar Topo.s1.etherMAC[0] 	txPk:count 	1227
attr interpolationmode  none
attr source  txPk
attr title  "packets transmitted, count"
scalar Topo.s1.etherMAC[0] 	txPk:sum(packetBytes) 	571328
attr interpolationmode  none
attr source  txPk
attr title  "packets transmitted, sum(packetBytes)"
scalar Topo.s1.etherMAC[0] 	backoff:count 	0
attr interpolationmode  none
attr title  "backoff, count"
scalar Topo.s1.etherMAC[0] 	collision:count 	0
attr interpolationmode  none
attr title  "collision, count"
scalar Topo.s1.etherMAC[0] 	passedUpPk:count 	1221
attr interpolationmode  none
attr source  packetSentToUpper
attr title  "packets passed to higher layer, count"
scalar Topo.s1.etherMAC[0] 	passedUpPk:sum(packetBytes) 	78144
attr interpolationmode  none
attr source  packetSentToUpper
attr title  "packets passed to higher layer, sum(packetBytes)"
scalar Topo.s1.etherMAC[1] 	"simulated time" 	303
scalar Topo.s1.etherMAC[1] 	full-duplex 	1
scalar Topo.s1.etherMAC[1] 	"frames/sec sent" 	1.996699669967
scalar Topo.s1.etherMAC[1] 	"frames/sec rcvd" 	2.009900990099
scalar Topo.s1.etherMAC[1] 	"bits/sec sent" 	1022.3102310231
scalar Topo.s1.etherMAC[1] 	"bits/sec rcvd" 	7534.6798679868
scalar Topo.s1.etherMAC[1] 	"rx channel idle (%)" 	99.992336686469
scalar Topo.s1.etherMAC[1] 	"rx channel utilization (%)" 	0.0076633135313531
scalar Topo.s1.etherMAC[1] 	"rx channel collision (%)" 	0
scalar Topo.s1.etherMAC[1] 	collisions 	0
scalar Topo.s1.etherMAC[1] 	backoffs 	0
scalar Topo.s1.etherMAC[1] 	droppedPkNotForUs:count 	0
attr interpolationmode  none
attr source  dropPkNotForUs
attr title  "packets dropped/not for us, count"
scalar Topo.s1.etherMAC[1] 	droppedPkNotForUs:sum(packetBytes) 	0
attr interpolationmode  none
attr source  dropPkNotForUs
attr title  "packets dropped/not for us, sum(packetBytes)"
scalar Topo.s1.etherMAC[1] 	droppedPkIfaceDown:count 	0
attr interpolationmode  none
attr source  dropPkIfaceDown
attr title  "packets dropped/interface down, count"
scalar Topo.s1.etherMAC[1] 	droppedPkIfaceDown:sum(packetBytes) 	0
attr interpolationmode  none
attr source  dropPkIfaceDown
attr title  "packets dropped/interface down, sum(packetBytes)"
scalar Topo.s1.etherMAC[1] 	droppedPkBitError:count 	0
attr interpolationmode  none
attr source  dropPkBitError
attr title  "packets dropped/bit error, count"
scalar Topo.s1.etherMAC[1] 	droppedPkBitError:sum(packetBytes) 	0
attr interpolationmode  none
attr source  dropPkBitError
attr title  "packets dropped/bit error, sum(packetBytes)"
scalar Topo.s1.etherMAC[1] 	rxPkFromHL:count 	605
attr interpolationmode  none
attr source  rxPkFromHL
attr title  "packet bytes from higher layer, count"
scalar Topo.s1.etherMAC[1] 	rxPkFromHL:sum(packetBytes) 	38720
attr interpolationmode  none
attr source  rxPkFromHL
attr title  "packet bytes from higher layer, sum(packetBytes)"
scalar Topo.s1.etherMAC[1] 	rxPausePkUnits:count 	0
attr interpolationmode  none
attr title  "pause units received, count"
scalar Topo.s1.etherMAC[1] 	rxPausePkUnits:sum 	0
attr interpolationmode  none
attr title  "pause units received, sum"
scalar Topo.s1.etherMAC[1] 	txPausePkUnits:count 	0
attr interpolationmode  none
attr title  "pause units sent, count"
scalar Topo.s1.etherMAC[1] 	txPausePkUnits:sum 	0
attr interpolationmode  none
attr title  "pause units sent, sum"
scalar Topo.s1.etherMAC[1] 	rxPkOk:count 	609
attr interpolationmode  none
attr source  rxPkOk
attr title  "packets received OK, count"
scalar Topo.s1.etherMAC[1] 	rxPkOk:sum(packetBytes) 	285376
attr interpolationmode  none
attr source  rxPkOk
attr title  "packets received OK, sum(packetBytes)"
scalar Topo.s1.etherMAC[1] 	txPk:count 	605
attr interpolationmode  none
attr source  txPk
attr title  "packets transmitted, count"
scalar Topo.s1.etherMAC[1] 	txPk:sum(packetBytes) 	38720
attr interpolationmode  none
attr source  txPk
attr title  "packets transmitted, sum(packetBytes)"
scalar Topo.s1.etherMAC[1] 	backoff:count 	0
attr interpolationmode  none
attr title  "backoff, count"
scalar Topo.s1.etherMAC[1] 	collision:count 	0
attr interpolationmode  none
attr title  "collision, count"
scalar Topo.s1.etherMAC[1] 	passedUpPk:count 	609
attr interpolationmode  none
attr source  packetSentToUpper
attr title  "packets passed to higher layer, count"
scalar Topo.s1.etherMAC[1] 	passedUpPk:sum(packetBytes) 	285376
attr interpolationmode  none
attr source  packetSentToUpper
attr title  "packets passed to higher layer, sum(packetBytes)"
scalar Topo.s1.etherMAC[2] 	"simulated time" 	303
scalar Topo.s1.etherMAC[2] 	full-duplex 	1
scalar Topo.s1.etherMAC[2] 	"frames/sec sent" 	1.993399339934
scalar Topo.s1.etherMAC[2] 	"frames/sec rcvd" 	2
scalar Topo.s1.etherMAC[2] 	"bits/sec sent" 	1020.6204620462
scalar Topo.s1.etherMAC[2] 	"bits/sec rcvd" 	7529.6105610561
scalar Topo.s1.etherMAC[2] 	"rx channel idle (%)" 	99.992342389439
scalar Topo.s1.etherMAC[2] 	"rx channel utilization (%)" 	0.0076576105610561
scalar Topo.s1.etherMAC[2] 	"rx channel collision (%)" 	0
scalar Topo.s1.etherMAC[2] 	collisions 	0
scalar Topo.s1.etherMAC[2] 	backoffs 	0
scalar Topo.s1.etherMAC[2] 	droppedPkNotForUs:count 	0
attr interpolationmode  none
attr source  dropPkNotForUs
attr title  "packets dropped/not for us, count"
scalar Topo.s1.etherMAC[2] 	droppedPkNotForUs:sum(packetBytes) 	0
attr interpolationmode  none
attr source  dropPkNotForUs
attr title  "packets dropped/not for us, sum(packetBytes)"
scalar Topo.s1.etherMAC[2] 	droppedPkIfaceDown:count 	0
attr interpolationmode  none
attr source  dropPkIfaceDown
attr title  "packets dropped/interface down, count"
scalar Topo.s1.etherMAC[2] 	droppedPkIfaceDown:sum(packetBytes) 	0
attr interpolationmode  none
attr source  dropPkIfaceDown
attr title  "packets dropped/interface down, sum(packetBytes)"
scalar Topo.s1.etherMAC[2] 	droppedPkBitError:count 	0
attr interpolationmode  none
attr source  dropPkBitError
attr title  "packets dropped/bit error, count"
scalar Topo.s1.etherMAC[2] 	droppedPkBitError:sum(packetBytes) 	0
attr interpolationmode  none
attr source  dropPkBitError
attr title  "packets dropped/bit error, sum(packetBytes)"
scalar Topo.s1.etherMAC[2] 	rxPkFromHL:count 	604
attr interpolationmode  none
attr source  rxPkFromHL
attr title  "packet bytes from higher layer, count"
scalar Topo.s1.etherMAC[2] 	rxPkFromHL:sum(packetBytes) 	38656
attr interpolationmode  none
attr source  rxPkFromHL
attr title  "packet bytes from higher layer, sum(packetBytes)"
scalar Topo.s1.etherMAC[2] 	rxPausePkUnits:count 	0
attr interpolationmode  none
attr title  "pause units received, count"
scalar Topo.s1.etherMAC[2] 	rxPausePkUnits:sum 	0
attr interpolationmode  none
attr title  "pause units received, sum"
scalar Topo.s1.etherMAC[2] 	txPausePkUnits:count 	0
attr interpolationmode  none
attr title  "pause units sent, count"
scalar Topo.s1.etherMAC[2] 	txPausePkUnits:sum 	0
attr interpolationmode  none
attr title  "pause units sent, sum"
scalar Topo.s1.etherMAC[2] 	rxPkOk:count 	606
attr interpolationmode  none
attr source  rxPkOk
attr title  "packets received OK, count"
scalar Topo.s1.etherMAC[2] 	rxPkOk:sum(packetBytes) 	285184
attr interpolationmode  none
attr source  rxPkOk
attr title  "packets received OK, sum(packetBytes)"
scalar Topo.s1.etherMAC[2] 	txPk:count 	604
attr interpolationmode  none
attr source  txPk
attr title  "packets transmitted, count"
scalar Topo.s1.etherMAC[2] 	txPk:sum(packetBytes) 	38656
attr interpolationmode  none
attr source  txPk
attr title  "packets transmitted, sum(packetBytes)"
scalar Topo.s1.etherMAC[2] 	backoff:count 	0
attr interpolationmode  none
attr title  "backoff, count"
scalar Topo.s1.etherMAC[2] 	collision:count 	0
attr interpolationmode  none
attr title  "collision, count"
scalar Topo.s1.etherMAC[2] 	passedUpPk:count 	606
attr interpolationmode  none
attr source  packetSentToUpper
attr title  "packets passed to higher layer, count"
scalar Topo.s1.etherMAC[2] 	passedUpPk:sum(packetBytes) 	285184
attr interpolationmode  none
attr source  packetSentToUpper
attr title  "packets passed to higher layer, sum(packetBytes)"
scalar Topo.s1.open_Flow_Processing 	droppedPkt:last 	-nan
attr source  droppedPkt
statistic Topo.s1.ofa_switch 	myRtt:stats
field count 97
field mean 9.8647419e-05
field stddev 9.4521305990361e-05
field sum 0.009568799643
field sqrsum 1.8016280071779e-06
field min 2.7679999e-05
field max 0.000410639992
attr interpolation  none
attr source  myRtt
attr title  "RTT for packet out direction, stats"
statistic Topo.s2.networkLayer.ip 	hops:stats
field count 0
field mean -nan
field stddev -nan
field sum 0
field sqrsum 0
field min -nan
field max -nan
attr interpolationmode  none
attr source  hops
attr title  "Hops number, stats"
scalar Topo.s2.networkLayer.arp 	failedARPResolution:count 	0
attr title  "ARP failed resolutions, count"
scalar Topo.s2.networkLayer.arp 	completedARPResolution:count 	3
attr title  "ARP completed resolutions, count"
scalar Topo.s2.networkLayer.arp 	initiatedARPResolution:count 	3
attr title  "ARP initiated resolutions, count"
scalar Topo.s2.networkLayer.arp 	sentReply:count 	0
attr title  "ARP replies sent, count"
scalar Topo.s2.networkLayer.arp 	sentReq:count 	3
attr title  "ARP request sent, count"
scalar Topo.s2.eth[0].mac 	"simulated time" 	303
scalar Topo.s2.eth[0].mac 	full-duplex 	1
scalar Topo.s2.eth[0].mac 	"frames/sec sent" 	0.47524752475248
scalar Topo.s2.eth[0].mac 	"frames/sec rcvd" 	0.47194719471947
scalar Topo.s2.eth[0].mac 	"bits/sec sent" 	364.85808580858
scalar Topo.s2.eth[0].mac 	"bits/sec rcvd" 	363.77557755776
scalar Topo.s2.eth[0].mac 	"rx channel idle (%)" 	99.999606019802
scalar Topo.s2.eth[0].mac 	"rx channel utilization (%)" 	0.0003939801980198
scalar Topo.s2.eth[0].mac 	droppedPkNotForUs:count 	0
attr interpolationmode  none
attr source  dropPkNotForUs
attr title  "packets dropped/not for us, count"
scalar Topo.s2.eth[0].mac 	droppedPkNotForUs:sum(packetBytes) 	0
attr interpolationmode  none
attr source  dropPkNotForUs
attr title  "packets dropped/not for us, sum(packetBytes)"
scalar Topo.s2.eth[0].mac 	droppedPkIfaceDown:count 	0
attr interpolationmode  none
attr source  dropPkIfaceDown
attr title  "packets dropped/interface down, count"
scalar Topo.s2.eth[0].mac 	droppedPkIfaceDown:sum(packetBytes) 	0
attr interpolationmode  none
attr source  dropPkIfaceDown
attr title  "packets dropped/interface down, sum(packetBytes)"
scalar Topo.s2.eth[0].mac 	droppedPkBitError:count 	0
attr interpolationmode  none
attr source  dropPkBitError
attr title  "packets dropped/bit error, count"
scalar Topo.s2.eth[0].mac 	droppedPkBitError:sum(packetBytes) 	0
attr interpolationmode  none
attr source  dropPkBitError
attr title  "packets dropped/bit error, sum(packetBytes)"
scalar Topo.s2.eth[0].mac 	rxPkFromHL:count 	144
attr interpolationmode  none
attr source  rxPkFromHL
attr title  "packet bytes from higher layer, count"
scalar Topo.s2.eth[0].mac 	rxPkFromHL:sum(packetBytes) 	13819
attr interpolationmode  none
attr source  rxPkFromHL
attr title  "packet bytes from higher layer, sum(packetBytes)"
scalar Topo.s2.eth[0].mac 	rxPausePkUnits:count 	0
attr interpolationmode  none
attr title  "pause units received, count"
scalar Topo.s2.eth[0].mac 	rxPausePkUnits:sum 	0
attr interpolationmode  none
attr title  "pause units received, sum"
scalar Topo.s2.eth[0].mac 	txPausePkUnits:count 	0
attr interpolationmode  none
attr title  "pause units sent, count"
scalar Topo.s2.eth[0].mac 	txPausePkUnits:sum 	0
attr interpolationmode  none
attr title  "pause units sent, sum"
scalar Topo.s2.eth[0].mac 	rxPkOk:count 	143
attr interpolationmode  none
attr source  rxPkOk
attr title  "packets received OK, count"
scalar Topo.s2.eth[0].mac 	rxPkOk:sum(packetBytes) 	13778
attr interpolationmode  none
attr source  rxPkOk
attr title  "packets received OK, sum(packetBytes)"
scalar Topo.s2.eth[0].mac 	txPk:count 	144
attr interpolationmode  none
attr source  txPk
attr title  "packets transmitted, count"
scalar Topo.s2.eth[0].mac 	txPk:sum(packetBytes) 	13819
attr interpolationmode  none
attr source  txPk
attr title  "packets transmitted, sum(packetBytes)"
scalar Topo.s2.eth[0].mac 	passedUpPk:count 	143
attr interpolationmode  none
attr source  packetSentToUpper
attr title  "packets passed to higher layer, count"
scalar Topo.s2.eth[0].mac 	passedUpPk:sum(packetBytes) 	13778
attr interpolationmode  none
attr source  packetSentToUpper
attr title  "packets passed to higher layer, sum(packetBytes)"
scalar Topo.s2.eth[0].encap 	pauseSent:count 	0
attr title  "pause sent, count"
scalar Topo.s2.eth[0].encap 	pauseSent:sum 	0
attr title  "pause sent, sum"
scalar Topo.s2.eth[0].encap 	decapPk:count 	143
attr interpolationmode  none
attr source  decapPk
attr title  "packets decapsulated, count"
scalar Topo.s2.eth[0].encap 	decapPk:sum(packetBytes) 	10469
attr interpolationmode  none
attr source  decapPk
attr title  "packets decapsulated, sum(packetBytes)"
scalar Topo.s2.eth[0].encap 	encapPk:count 	144
attr interpolationmode  none
attr source  encapPk
attr title  "packets encapsulated, count"
scalar Topo.s2.eth[0].encap 	encapPk:sum(packetBytes) 	10470
attr interpolationmode  none
attr source  encapPk
attr title  "packets encapsulated, sum(packetBytes)"
scalar Topo.s2.etherMAC[0] 	"simulated time" 	303
scalar Topo.s2.etherMAC[0] 	full-duplex 	1
scalar Topo.s2.etherMAC[0] 	"frames/sec sent" 	2.009900990099
scalar Topo.s2.etherMAC[0] 	"frames/sec rcvd" 	1.996699669967
scalar Topo.s2.etherMAC[0] 	"bits/sec sent" 	7534.6798679868
scalar Topo.s2.etherMAC[0] 	"bits/sec rcvd" 	1022.3102310231
scalar Topo.s2.etherMAC[0] 	"rx channel idle (%)" 	99.99884990099
scalar Topo.s2.etherMAC[0] 	"rx channel utilization (%)" 	0.001150099009901
scalar Topo.s2.etherMAC[0] 	"rx channel collision (%)" 	0
scalar Topo.s2.etherMAC[0] 	collisions 	0
scalar Topo.s2.etherMAC[0] 	backoffs 	0
scalar Topo.s2.etherMAC[0] 	droppedPkNotForUs:count 	0
attr interpolationmode  none
attr source  dropPkNotForUs
attr title  "packets dropped/not for us, count"
scalar Topo.s2.etherMAC[0] 	droppedPkNotForUs:sum(packetBytes) 	0
attr interpolationmode  none
attr source  dropPkNotForUs
attr title  "packets dropped/not for us, sum(packetBytes)"
scalar Topo.s2.etherMAC[0] 	droppedPkIfaceDown:count 	0
attr interpolationmode  none
attr source  dropPkIfaceDown
attr title  "packets dropped/interface down, count"
scalar Topo.s2.etherMAC[0] 	droppedPkIfaceDown:sum(packetBytes) 	0
attr interpolationmode  none
attr source  dropPkIfaceDown
attr title  "packets dropped/interface down, sum(packetBytes)"
scalar Topo.s2.etherMAC[0] 	droppedPkBitError:count 	0
attr interpolationmode  none
attr source  dropPkBitError
attr title  "packets dropped/bit error, count"
scalar Topo.s2.etherMAC[0] 	droppedPkBitError:sum(packetBytes) 	0
attr interpolationmode  none
attr source  dropPkBitError
attr title  "packets dropped/bit error, sum(packetBytes)"
scalar Topo.s2.etherMAC[0] 	rxPkFromHL:count 	609
attr interpolationmode  none
attr source  rxPkFromHL
attr title  "packet bytes from higher layer, count"
scalar Topo.s2.etherMAC[0] 	rxPkFromHL:sum(packetBytes) 	285376
attr interpolationmode  none
attr source  rxPkFromHL
attr title  "packet bytes from higher layer, sum(packetBytes)"
scalar Topo.s2.etherMAC[0] 	rxPausePkUnits:count 	0
attr interpolationmode  none
attr title  "pause units received, count"
scalar Topo.s2.etherMAC[0] 	rxPausePkUnits:sum 	0
attr interpolationmode  none
attr title  "pause units received, sum"
scalar Topo.s2.etherMAC[0] 	txPausePkUnits:count 	0
attr interpolationmode  none
attr title  "pause units sent, count"
scalar Topo.s2.etherMAC[0] 	txPausePkUnits:sum 	0
attr interpolationmode  none
attr title  "pause units sent, sum"
scalar Topo.s2.etherMAC[0] 	rxPkOk:count 	605
attr interpolationmode  none
attr source  rxPkOk
attr title  "packets received OK, count"
scalar Topo.s2.etherMAC[0] 	rxPkOk:sum(packetBytes) 	38720
attr interpolationmode  none
attr source  rxPkOk
attr title  "packets received OK, sum(packetBytes)"
scalar Topo.s2.etherMAC[0] 	txPk:count 	609
attr interpolationmode  none
attr source  txPk
attr title  "packets transmitted, count"
scalar Topo.s2.etherMAC[0] 	txPk:sum(packetBytes) 	285376
attr interpolationmode  none
attr source  txPk
attr title  "packets transmitted, sum(packetBytes)"
scalar Topo.s2.etherMAC[0] 	backoff:count 	0
attr interpolationmode  none
attr title  "backoff, count"
scalar Topo.s2.etherMAC[0] 	collision:count 	0
attr interpolationmode  none
attr title  "collision, count"
scalar Topo.s2.etherMAC[0] 	passedUpPk:count 	605
attr interpolationmode  none
attr source  packetSentToUpper
attr title  "packets passed to higher layer, count"
scalar Topo.s2.etherMAC[0] 	passedUpPk:sum(packetBytes) 	38720
attr interpolationmode  none
attr source  packetSentToUpper
attr title  "packets passed to higher layer, sum(packetBytes)"
scalar Topo.s2.etherMAC[1] 	"simulated time" 	303
scalar Topo.s2.etherMAC[1] 	full-duplex 	1
scalar Topo.s2.etherMAC[1] 	"frames/sec sent" 	0
scalar Topo.s2.etherMAC[1] 	"frames/sec rcvd" 	0
scalar Topo.s2.etherMAC[1] 	"bits/sec sent" 	0
scalar Topo.s2.etherMAC[1] 	"bits/sec rcvd" 	0
scalar Topo.s2.etherMAC[1] 	"rx channel idle (%)" 	100
scalar Topo.s2.etherMAC[1] 	"rx channel utilization (%)" 	0
scalar Topo.s2.etherMAC[1] 	"rx channel collision (%)" 	0
scalar Topo.s2.etherMAC[1] 	collisions 	0
scalar Topo.s2.etherMAC[1] 	backoffs 	0
scalar Topo.s2.etherMAC[1] 	droppedPkNotForUs:count 	0
attr interpolationmode  none
attr source  dropPkNotForUs
attr title  "packets dropped/not for us, count"
scalar Topo.s2.etherMAC[1] 	droppedPkNotForUs:sum(packetBytes) 	0
attr interpolationmode  none
attr source  dropPkNotForUs
attr title  "packets dropped/not for us, sum(packetBytes)"
scalar Topo.s2.etherMAC[1] 	droppedPkIfaceDown:count 	0
attr interpolationmode  none
attr source  dropPkIfaceDown
attr title  "packets dropped/interface down, count"
scalar Topo.s2.etherMAC[1] 	droppedPkIfaceDown:sum(packetBytes) 	0
attr interpolationmode  none
attr source  dropPkIfaceDown
attr title  "packets dropped/interface down, sum(packetBytes)"
scalar Topo.s2.etherMAC[1] 	droppedPkBitError:count 	0
attr interpolationmode  none
attr source  dropPkBitError
attr title  "packets dropped/bit error, count"
scalar Topo.s2.etherMAC[1] 	droppedPkBitError:sum(packetBytes) 	0
attr interpolationmode  none
attr source  dropPkBitError
attr title  "packets dropped/bit error, sum(packetBytes)"
scalar Topo.s2.etherMAC[1] 	rxPkFromHL:count 	0
attr interpolationmode  none
attr source  rxPkFromHL
attr title  "packet bytes from higher layer, count"
scalar Topo.s2.etherMAC[1] 	rxPkFromHL:sum(packetBytes) 	0
attr interpolationmode  none
attr source  rxPkFromHL
attr title  "packet bytes from higher layer, sum(packetBytes)"
scalar Topo.s2.etherMAC[1] 	rxPausePkUnits:count 	0
attr interpolationmode  none
attr title  "pause units received, count"
scalar Topo.s2.etherMAC[1] 	rxPausePkUnits:sum 	0
attr interpolationmode  none
attr title  "pause units received, sum"
scalar Topo.s2.etherMAC[1] 	txPausePkUnits:count 	0
attr interpolationmode  none
attr title  "pause units sent, count"
scalar Topo.s2.etherMAC[1] 	txPausePkUnits:sum 	0
attr interpolationmode  none
attr title  "pause units sent, sum"
scalar Topo.s2.etherMAC[1] 	rxPkOk:count 	0
attr interpolationmode  none
attr source  rxPkOk
attr title  "packets received OK, count"
scalar Topo.s2.etherMAC[1] 	rxPkOk:sum(packetBytes) 	0
attr interpolationmode  none
attr source  rxPkOk
attr title  "packets received OK, sum(packetBytes)"
scalar Topo.s2.etherMAC[1] 	txPk:count 	0
attr interpolationmode  none
attr source  txPk
attr title  "packets transmitted, count"
scalar Topo.s2.etherMAC[1] 	txPk:sum(packetBytes) 	0
attr interpolationmode  none
attr source  txPk
attr title  "packets transmitted, sum(packetBytes)"
scalar Topo.s2.etherMAC[1] 	backoff:count 	0
attr interpolationmode  none
attr title  "backoff, count"
scalar Topo.s2.etherMAC[1] 	collision:count 	0
attr interpolationmode  none
attr title  "collision, count"
scalar Topo.s2.etherMAC[1] 	passedUpPk:count 	0
attr interpolationmode  none
attr source  packetSentToUpper
attr title  "packets passed to higher layer, count"
scalar Topo.s2.etherMAC[1] 	passedUpPk:sum(packetBytes) 	0
attr interpolationmode  none
attr source  packetSentToUpper
attr title  "packets passed to higher layer, sum(packetBytes)"
scalar Topo.s2.etherMAC[2] 	"simulated time" 	303
scalar Topo.s2.etherMAC[2] 	full-duplex 	1
scalar Topo.s2.etherMAC[2] 	"frames/sec sent" 	1.996699669967
scalar Topo.s2.etherMAC[2] 	"frames/sec rcvd" 	2.009900990099
scalar Topo.s2.etherMAC[2] 	"bits/sec sent" 	1022.3102310231
scalar Topo.s2.etherMAC[2] 	"bits/sec rcvd" 	7534.6798679868
scalar Topo.s2.etherMAC[2] 	"rx channel idle (%)" 	99.992336686469
scalar Topo.s2.etherMAC[2] 	"rx channel utilization (%)" 	0.0076633135313531
scalar Topo.s2.etherMAC[2] 	"rx channel collision (%)" 	0
scalar Topo.s2.etherMAC[2] 	collisions 	0
scalar Topo.s2.etherMAC[2] 	backoffs 	0
scalar Topo.s2.etherMAC[2] 	droppedPkNotForUs:count 	0
attr interpolationmode  none
attr source  dropPkNotForUs
attr title  "packets dropped/not for us, count"
scalar Topo.s2.etherMAC[2] 	droppedPkNotForUs:sum(packetBytes) 	0
attr interpolationmode  none
attr source  dropPkNotForUs
attr title  "packets dropped/not for us, sum(packetBytes)"
scalar Topo.s2.etherMAC[2] 	droppedPkIfaceDown:count 	0
attr interpolationmode  none
attr source  dropPkIfaceDown
attr title  "packets dropped/interface down, count"
scalar Topo.s2.etherMAC[2] 	droppedPkIfaceDown:sum(packetBytes) 	0
attr interpolationmode  none
attr source  dropPkIfaceDown
attr title  "packets dropped/interface down, sum(packetBytes)"
scalar Topo.s2.etherMAC[2] 	droppedPkBitError:count 	0
attr interpolationmode  none
attr source  dropPkBitError
attr title  "packets dropped/bit error, count"
scalar Topo.s2.etherMAC[2] 	droppedPkBitError:sum(packetBytes) 	0
attr interpolationmode  none
attr source  dropPkBitError
attr title  "packets dropped/bit error, sum(packetBytes)"
scalar Topo.s2.etherMAC[2] 	rxPkFromHL:count 	605
attr interpolationmode  none
attr source  rxPkFromHL
attr title  "packet bytes from higher layer, count"
scalar Topo.s2.etherMAC[2] 	rxPkFromHL:sum(packetBytes) 	38720
attr interpolationmode  none
attr source  rxPkFromHL
attr title  "packet bytes from higher layer, sum(packetBytes)"
scalar Topo.s2.etherMAC[2] 	rxPausePkUnits:count 	0
attr interpolationmode  none
attr title  "pause units received, count"
scalar Topo.s2.etherMAC[2] 	rxPausePkUnits:sum 	0
attr interpolationmode  none
attr title  "pause units received, sum"
scalar Topo.s2.etherMAC[2] 	txPausePkUnits:count 	0
attr interpolationmode  none
attr title  "pause units sent, count"
scalar Topo.s2.etherMAC[2] 	txPausePkUnits:sum 	0
attr interpolationmode  none
attr title  "pause units sent, sum"
scalar Topo.s2.etherMAC[2] 	rxPkOk:count 	609
attr interpolationmode  none
attr source  rxPkOk
attr title  "packets received OK, count"
scalar Topo.s2.etherMAC[2] 	rxPkOk:sum(packetBytes) 	285376
attr interpolationmode  none
attr source  rxPkOk
attr title  "packets received OK, sum(packetBytes)"
scalar Topo.s2.etherMAC[2] 	txPk:count 	605
attr interpolationmode  none
attr source  txPk
attr title  "packets transmitted, count"
scalar Topo.s2.etherMAC[2] 	txPk:sum(packetBytes) 	38720
attr interpolationmode  none
attr source  txPk
attr title  "packets transmitted, sum(packetBytes)"
scalar Topo.s2.etherMAC[2] 	backoff:count 	0
attr interpolationmode  none
attr title  "backoff, count"
scalar Topo.s2.etherMAC[2] 	collision:count 	0
attr interpolationmode  none
attr title  "collision, count"
scalar Topo.s2.etherMAC[2] 	passedUpPk:count 	609
attr interpolationmode  none
attr source  packetSentToUpper
attr title  "packets passed to higher layer, count"
scalar Topo.s2.etherMAC[2] 	passedUpPk:sum(packetBytes) 	285376
attr interpolationmode  none
attr source  packetSentToUpper
attr title  "packets passed to higher layer, sum(packetBytes)"
scalar Topo.s2.open_Flow_Processing 	droppedPkt:last 	-nan
attr source  droppedPkt
statistic Topo.s2.ofa_switch 	myRtt:stats
field count 10
field mean 0.0001526639976
field stddev 4.1640610188122e-05
field sum 0.001526639976
field sqrsum 2.4866842538368e-07
field min 6.3200008e-05
field max 0.000223279995
attr interpolation  none
attr source  myRtt
attr title  "RTT for packet out direction, stats"
statistic Topo.s3.networkLayer.ip 	hops:stats
field count 0
field mean -nan
field stddev -nan
field sum 0
field sqrsum 0
field min -nan
field max -nan
attr interpolationmode  none
attr source  hops
attr title  "Hops number, stats"
scalar Topo.s3.networkLayer.arp 	failedARPResolution:count 	0
attr title  "ARP failed resolutions, count"
scalar Topo.s3.networkLayer.arp 	completedARPResolution:count 	3
attr title  "ARP completed resolutions, count"
scalar Topo.s3.networkLayer.arp 	initiatedARPResolution:count 	3
attr title  "ARP initiated resolutions, count"
scalar Topo.s3.networkLayer.arp 	sentReply:count 	0
attr title  "ARP replies sent, count"
scalar Topo.s3.networkLayer.arp 	sentReq:count 	3
attr title  "ARP request sent, count"
scalar Topo.s3.eth[0].mac 	"simulated time" 	303
scalar Topo.s3.eth[0].mac 	full-duplex 	1
scalar Topo.s3.eth[0].mac 	"frames/sec sent" 	0.51485148514851
scalar Topo.s3.eth[0].mac 	"frames/sec rcvd" 	0.51155115511551
scalar Topo.s3.eth[0].mac 	"bits/sec sent" 	409.82178217822
scalar Topo.s3.eth[0].mac 	"bits/sec rcvd" 	408.76567656766
scalar Topo.s3.eth[0].mac 	"rx channel idle (%)" 	99.999558495049
scalar Topo.s3.eth[0].mac 	"rx channel utilization (%)" 	0.00044150495049505
scalar Topo.s3.eth[0].mac 	droppedPkNotForUs:count 	0
attr interpolationmode  none
attr source  dropPkNotForUs
attr title  "packets dropped/not for us, count"
scalar Topo.s3.eth[0].mac 	droppedPkNotForUs:sum(packetBytes) 	0
attr interpolationmode  none
attr source  dropPkNotForUs
attr title  "packets dropped/not for us, sum(packetBytes)"
scalar Topo.s3.eth[0].mac 	droppedPkIfaceDown:count 	0
attr interpolationmode  none
attr source  dropPkIfaceDown
attr title  "packets dropped/interface down, count"
scalar Topo.s3.eth[0].mac 	droppedPkIfaceDown:sum(packetBytes) 	0
attr interpolationmode  none
attr source  dropPkIfaceDown
attr title  "packets dropped/interface down, sum(packetBytes)"
scalar Topo.s3.eth[0].mac 	droppedPkBitError:count 	0
attr interpolationmode  none
attr source  dropPkBitError
attr title  "packets dropped/bit error, count"
scalar Topo.s3.eth[0].mac 	droppedPkBitError:sum(packetBytes) 	0
attr interpolationmode  none
attr source  dropPkBitError
attr title  "packets dropped/bit error, sum(packetBytes)"
scalar Topo.s3.eth[0].mac 	rxPkFromHL:count 	156
attr interpolationmode  none
attr source  rxPkFromHL
attr title  "packet bytes from higher layer, count"
scalar Topo.s3.eth[0].mac 	rxPkFromHL:sum(packetBytes) 	15522
attr interpolationmode  none
attr source  rxPkFromHL
attr title  "packet bytes from higher layer, sum(packetBytes)"
scalar Topo.s3.eth[0].mac 	rxPausePkUnits:count 	0
attr interpolationmode  none
attr title  "pause units received, count"
scalar Topo.s3.eth[0].mac 	rxPausePkUnits:sum 	0
attr interpolationmode  none
attr title  "pause units received, sum"
scalar Topo.s3.eth[0].mac 	txPausePkUnits:count 	0
attr interpolationmode  none
attr title  "pause units sent, count"
scalar Topo.s3.eth[0].mac 	txPausePkUnits:sum 	0
attr interpolationmode  none
attr title  "pause units sent, sum"
scalar Topo.s3.eth[0].mac 	rxPkOk:count 	155
attr interpolationmode  none
attr source  rxPkOk
attr title  "packets received OK, count"
scalar Topo.s3.eth[0].mac 	rxPkOk:sum(packetBytes) 	15482
attr interpolationmode  none
attr source  rxPkOk
attr title  "packets received OK, sum(packetBytes)"
scalar Topo.s3.eth[0].mac 	txPk:count 	156
attr interpolationmode  none
attr source  txPk
attr title  "packets transmitted, count"
scalar Topo.s3.eth[0].mac 	txPk:sum(packetBytes) 	15522
attr interpolationmode  none
attr source  txPk
attr title  "packets transmitted, sum(packetBytes)"
scalar Topo.s3.eth[0].mac 	passedUpPk:count 	155
attr interpolationmode  none
attr source  packetSentToUpper
attr title  "packets passed to higher layer, count"
scalar Topo.s3.eth[0].mac 	passedUpPk:sum(packetBytes) 	15482
attr interpolationmode  none
attr source  packetSentToUpper
attr title  "packets passed to higher layer, sum(packetBytes)"
scalar Topo.s3.eth[0].encap 	pauseSent:count 	0
attr title  "pause sent, count"
scalar Topo.s3.eth[0].encap 	pauseSent:sum 	0
attr title  "pause sent, sum"
scalar Topo.s3.eth[0].encap 	decapPk:count 	155
attr interpolationmode  none
attr source  decapPk
attr title  "packets decapsulated, count"
scalar Topo.s3.eth[0].encap 	decapPk:sum(packetBytes) 	11920
attr interpolationmode  none
attr source  decapPk
attr title  "packets decapsulated, sum(packetBytes)"
scalar Topo.s3.eth[0].encap 	encapPk:count 	156
attr interpolationmode  none
attr source  encapPk
attr title  "packets encapsulated, count"
scalar Topo.s3.eth[0].encap 	encapPk:sum(packetBytes) 	11912
attr interpolationmode  none
attr source  encapPk
attr title  "packets encapsulated, sum(packetBytes)"
scalar Topo.s3.etherMAC[0] 	"simulated time" 	303
scalar Topo.s3.etherMAC[0] 	full-duplex 	1
scalar Topo.s3.etherMAC[0] 	"frames/sec sent" 	2
scalar Topo.s3.etherMAC[0] 	"frames/sec rcvd" 	1.993399339934
scalar Topo.s3.etherMAC[0] 	"bits/sec sent" 	7529.6105610561
scalar Topo.s3.etherMAC[0] 	"bits/sec rcvd" 	1020.6204620462
scalar Topo.s3.etherMAC[0] 	"rx channel idle (%)" 	99.99885180198
scalar Topo.s3.etherMAC[0] 	"rx channel utilization (%)" 	0.001148198019802
scalar Topo.s3.etherMAC[0] 	"rx channel collision (%)" 	0
scalar Topo.s3.etherMAC[0] 	collisions 	0
scalar Topo.s3.etherMAC[0] 	backoffs 	0
scalar Topo.s3.etherMAC[0] 	droppedPkNotForUs:count 	0
attr interpolationmode  none
attr source  dropPkNotForUs
attr title  "packets dropped/not for us, count"
scalar Topo.s3.etherMAC[0] 	droppedPkNotForUs:sum(packetBytes) 	0
attr interpolationmode  none
attr source  dropPkNotForUs
attr title  "packets dropped/not for us, sum(packetBytes)"
scalar Topo.s3.etherMAC[0] 	droppedPkIfaceDown:count 	0
attr interpolationmode  none
attr source  dropPkIfaceDown
attr title  "packets dropped/interface down, count"
scalar Topo.s3.etherMAC[0] 	droppedPkIfaceDown:sum(packetBytes) 	0
attr interpolationmode  none
attr source  dropPkIfaceDown
attr title  "packets dropped/interface down, sum(packetBytes)"
scalar Topo.s3.etherMAC[0] 	droppedPkBitError:count 	0
attr interpolationmode  none
attr source  dropPkBitError
attr title  "packets dropped/bit error, count"
scalar Topo.s3.etherMAC[0] 	droppedPkBitError:sum(packetBytes) 	0
attr interpolationmode  none
attr source  dropPkBitError
attr title  "packets dropped/bit error, sum(packetBytes)"
scalar Topo.s3.etherMAC[0] 	rxPkFromHL:count 	606
attr interpolationmode  none
attr source  rxPkFromHL
attr title  "packet bytes from higher layer, count"
scalar Topo.s3.etherMAC[0] 	rxPkFromHL:sum(packetBytes) 	285184
attr interpolationmode  none
attr source  rxPkFromHL
attr title  "packet bytes from higher layer, sum(packetBytes)"
scalar Topo.s3.etherMAC[0] 	rxPausePkUnits:count 	0
attr interpolationmode  none
attr title  "pause units received, count"
scalar Topo.s3.etherMAC[0] 	rxPausePkUnits:sum 	0
attr interpolationmode  none
attr title  "pause units received, sum"
scalar Topo.s3.etherMAC[0] 	txPausePkUnits:count 	0
attr interpolationmode  none
attr title  "pause units sent, count"
scalar Topo.s3.etherMAC[0] 	txPausePkUnits:sum 	0
attr interpolationmode  none
attr title  "pause units sent, sum"
scalar Topo.s3.etherMAC[0] 	rxPkOk:count 	604
attr interpolationmode  none
attr source  rxPkOk
attr title  "packets received OK, count"
scalar Topo.s3.etherMAC[0] 	rxPkOk:sum(packetBytes) 	38656
attr interpolationmode  none
attr source  rxPkOk
attr title  "packets received OK, sum(packetBytes)"
scalar Topo.s3.etherMAC[0] 	txPk:count 	606
attr interpolationmode  none
attr source  txPk
attr title  "packets transmitted, count"
scalar Topo.s3.etherMAC[0] 	txPk:sum(packetBytes) 	285184
attr interpolationmode  none
attr source  txPk
attr title  "packets transmitted, sum(packetBytes)"
scalar Topo.s3.etherMAC[0] 	backoff:count 	0
attr interpolationmode  none
attr title  "backoff, count"
scalar Topo.s3.etherMAC[0] 	collision:count 	0
attr interpolationmode  none
attr title  "collision, count"
scalar Topo.s3.etherMAC[0] 	passedUpPk:count 	604
attr interpolationmode  none
attr source  packetSentToUpper
attr title  "packets passed to higher layer, count"
scalar Topo.s3.etherMAC[0] 	passedUpPk:sum(packetBytes) 	38656
attr interpolationmode  none
attr source  packetSentToUpper
attr title  "packets passed to higher layer, sum(packetBytes)"
scalar Topo.s3.etherMAC[1] 	"simulated time" 	303
scalar Topo.s3.etherMAC[1] 	full-duplex 	1
scalar Topo.s3.etherMAC[1] 	"frames/sec sent" 	0
scalar Topo.s3.etherMAC[1] 	"frames/sec rcvd" 	0
scalar Topo.s3.etherMAC[1] 	"bits/sec sent" 	0
scalar Topo.s3.etherMAC[1] 	"bits/sec rcvd" 	0
scalar Topo.s3.etherMAC[1] 	"rx channel idle (%)" 	100
scalar Topo.s3.etherMAC[1] 	"rx channel utilization (%)" 	0
scalar Topo.s3.etherMAC[1] 	"rx channel collision (%)" 	0
scalar Topo.s3.etherMAC[1] 	collisions 	0
scalar Topo.s3.etherMAC[1] 	backoffs 	0
scalar Topo.s3.etherMAC[1] 	droppedPkNotForUs:count 	0
attr interpolationmode  none
attr source  dropPkNotForUs
attr title  "packets dropped/not for us, count"
scalar Topo.s3.etherMAC[1] 	droppedPkNotForUs:sum(packetBytes) 	0
attr interpolationmode  none
attr source  dropPkNotForUs
attr title  "packets dropped/not for us, sum(packetBytes)"
scalar Topo.s3.etherMAC[1] 	droppedPkIfaceDown:count 	0
attr interpolationmode  none
attr source  dropPkIfaceDown
attr title  "packets dropped/interface down, count"
scalar Topo.s3.etherMAC[1] 	droppedPkIfaceDown:sum(packetBytes) 	0
attr interpolationmode  none
attr source  dropPkIfaceDown
attr title  "packets dropped/interface down, sum(packetBytes)"
scalar Topo.s3.etherMAC[1] 	droppedPkBitError:count 	0
attr interpolationmode  none
attr source  dropPkBitError
attr title  "packets dropped/bit error, count"
scalar Topo.s3.etherMAC[1] 	droppedPkBitError:sum(packetBytes) 	0
attr interpolationmode  none
attr source  dropPkBitError
attr title  "packets dropped/bit error, sum(packetBytes)"
scalar Topo.s3.etherMAC[1] 	rxPkFromHL:count 	0
attr interpolationmode  none
attr source  rxPkFromHL
attr title  "packet bytes from higher layer, count"
scalar Topo.s3.etherMAC[1] 	rxPkFromHL:sum(packetBytes) 	0
attr interpolationmode  none
attr source  rxPkFromHL
attr title  "packet bytes from higher layer, sum(packetBytes)"
scalar Topo.s3.etherMAC[1] 	rxPausePkUnits:count 	0
attr interpolationmode  none
attr title  "pause units received, count"
scalar Topo.s3.etherMAC[1] 	rxPausePkUnits:sum 	0
attr interpolationmode  none
attr title  "pause units received, sum"
scalar Topo.s3.etherMAC[1] 	txPausePkUnits:count 	0
attr interpolationmode  none
attr title  "pause units sent, count"
scalar Topo.s3.etherMAC[1] 	txPausePkUnits:sum 	0
attr interpolationmode  none
attr title  "pause units sent, sum"
scalar Topo.s3.etherMAC[1] 	rxPkOk:count 	0
attr interpolationmode  none
attr source  rxPkOk
attr title  "packets received OK, count"
scalar Topo.s3.etherMAC[1] 	rxPkOk:sum(packetBytes) 	0
attr interpolationmode  none
attr source  rxPkOk
attr title  "packets received OK, sum(packetBytes)"
scalar Topo.s3.etherMAC[1] 	txPk:count 	0
attr interpolationmode  none
attr source  txPk
attr title  "packets transmitted, count"
scalar Topo.s3.etherMAC[1] 	txPk:sum(packetBytes) 	0
attr interpolationmode  none
attr source  txPk
attr title  "packets transmitted, sum(packetBytes)"
scalar Topo.s3.etherMAC[1] 	backoff:count 	0
attr interpolationmode  none
attr title  "backoff, count"
scalar Topo.s3.etherMAC[1] 	collision:count 	0
attr interpolationmode  none
attr title  "collision, count"
scalar Topo.s3.etherMAC[1] 	passedUpPk:count 	0
attr interpolationmode  none
attr source  packetSentToUpper
attr title  "packets passed to higher layer, count"
scalar Topo.s3.etherMAC[1] 	passedUpPk:sum(packetBytes) 	0
attr interpolationmode  none
attr source  packetSentToUpper
attr title  "packets passed to higher layer, sum(packetBytes)"
scalar Topo.s3.etherMAC[2] 	"simulated time" 	303
scalar Topo.s3.etherMAC[2] 	full-duplex 	1
scalar Topo.s3.etherMAC[2] 	"frames/sec sent" 	1.993399339934
scalar Topo.s3.etherMAC[2] 	"frames/sec rcvd" 	2
scalar Topo.s3.etherMAC[2] 	"bits/sec sent" 	1020.6204620462
scalar Topo.s3.etherMAC[2] 	"bits/sec rcvd" 	7529.6105610561
scalar Topo.s3.etherMAC[2] 	"rx channel idle (%)" 	99.992342389439
scalar Topo.s3.etherMAC[2] 	"rx channel utilization (%)" 	0.0076576105610561
scalar Topo.s3.etherMAC[2] 	"rx channel collision (%)" 	0
scalar Topo.s3.etherMAC[2] 	collisions 	0
scalar Topo.s3.etherMAC[2] 	backoffs 	0
scalar Topo.s3.etherMAC[2] 	droppedPkNotForUs:count 	0
attr interpolationmode  none
attr source  dropPkNotForUs
attr title  "packets dropped/not for us, count"
scalar Topo.s3.etherMAC[2] 	droppedPkNotForUs:sum(packetBytes) 	0
attr interpolationmode  none
attr source  dropPkNotForUs
attr title  "packets dropped/not for us, sum(packetBytes)"
scalar Topo.s3.etherMAC[2] 	droppedPkIfaceDown:count 	0
attr interpolationmode  none
attr source  dropPkIfaceDown
attr title  "packets dropped/interface down, count"
scalar Topo.s3.etherMAC[2] 	droppedPkIfaceDown:sum(packetBytes) 	0
attr interpolationmode  none
attr source  dropPkIfaceDown
attr title  "packets dropped/interface down, sum(packetBytes)"
scalar Topo.s3.etherMAC[2] 	droppedPkBitError:count 	0
attr interpolationmode  none
attr source  dropPkBitError
attr title  "packets dropped/bit error, count"
scalar Topo.s3.etherMAC[2] 	droppedPkBitError:sum(packetBytes) 	0
attr interpolationmode  none
attr source  dropPkBitError
attr title  "packets dropped/bit error, sum(packetBytes)"
scalar Topo.s3.etherMAC[2] 	rxPkFromHL:count 	604
attr interpolationmode  none
attr source  rxPkFromHL
attr title  "packet bytes from higher layer, count"
scalar Topo.s3.etherMAC[2] 	rxPkFromHL:sum(packetBytes) 	38656
attr interpolationmode  none
attr source  rxPkFromHL
attr title  "packet bytes from higher layer, sum(packetBytes)"
scalar Topo.s3.etherMAC[2] 	rxPausePkUnits:count 	0
attr interpolationmode  none
attr title  "pause units received, count"
scalar Topo.s3.etherMAC[2] 	rxPausePkUnits:sum 	0
attr interpolationmode  none
attr title  "pause units received, sum"
scalar Topo.s3.etherMAC[2] 	txPausePkUnits:count 	0
attr interpolationmode  none
attr title  "pause units sent, count"
scalar Topo.s3.etherMAC[2] 	txPausePkUnits:sum 	0
attr interpolationmode  none
attr title  "pause units sent, sum"
scalar Topo.s3.etherMAC[2] 	rxPkOk:count 	606
attr interpolationmode  none
attr source  rxPkOk
attr title  "packets received OK, count"
scalar Topo.s3.etherMAC[2] 	rxPkOk:sum(packetBytes) 	285184
attr interpolationmode  none
attr source  rxPkOk
attr title  "packets received OK, sum(packetBytes)"
scalar Topo.s3.etherMAC[2] 	txPk:count 	604
attr interpolationmode  none
attr source  txPk
attr title  "packets transmitted, count"
scalar Topo.s3.etherMAC[2] 	txPk:sum(packetBytes) 	38656
attr interpolationmode  none
attr source  txPk
attr title  "packets transmitted, sum(packetBytes)"
scalar Topo.s3.etherMAC[2] 	backoff:count 	0
attr interpolationmode  none
attr title  "backoff, count"
scalar Topo.s3.etherMAC[2] 	collision:count 	0
attr interpolationmode  none
attr title  "collision, count"
scalar Topo.s3.etherMAC[2] 	passedUpPk:count 	606
attr interpolationmode  none
attr source  packetSentToUpper
attr title  "packets passed to higher layer, count"
scalar Topo.s3.etherMAC[2] 	passedUpPk:sum(packetBytes) 	285184
attr interpolationmode  none
attr source  packetSentToUpper
attr title  "packets passed to higher layer, sum(packetBytes)"
scalar Topo.s3.open_Flow_Processing 	droppedPkt:last 	-nan
attr source  droppedPkt
statistic Topo.s3.ofa_switch 	myRtt:stats
field count 14
field mean 0.00013558285442857
field stddev 5.0268732387754e-05
field sum 0.001898159962
field sqrsum 2.9020823673632e-07
field min 5.0799996e-05
field max 0.000223279995
attr interpolation  none
attr source  myRtt
attr title  "RTT for packet out direction, stats"
statistic Topo.s4.networkLayer.ip 	hops:stats
field count 0
field mean -nan
field stddev -nan
field sum 0
field sqrsum 0
field min -nan
field max -nan
attr interpolationmode  none
attr source  hops
attr title  "Hops number, stats"
scalar Topo.s4.networkLayer.arp 	failedARPResolution:count 	0
attr title  "ARP failed resolutions, count"
scalar Topo.s4.networkLayer.arp 	completedARPResolution:count 	3
attr title  "ARP completed resolutions, count"
scalar Topo.s4.networkLayer.arp 	initiatedARPResolution:count 	3
attr title  "ARP initiated resolutions, count"
scalar Topo.s4.networkLayer.arp 	sentReply:count 	0
attr title  "ARP replies sent, count"
scalar Topo.s4.networkLayer.arp 	sentReq:count 	3
attr title  "ARP request sent, count"
scalar Topo.s4.eth[0].mac 	"simulated time" 	303
scalar Topo.s4.eth[0].mac 	full-duplex 	1
scalar Topo.s4.eth[0].mac 	"frames/sec sent" 	0.43234323432343
scalar Topo.s4.eth[0].mac 	"frames/sec rcvd" 	0.42904290429043
scalar Topo.s4.eth[0].mac 	"bits/sec sent" 	310.54785478548
scalar Topo.s4.eth[0].mac 	"bits/sec rcvd" 	308.91089108911
scalar Topo.s4.eth[0].mac 	"rx channel idle (%)" 	99.999663630363
scalar Topo.s4.eth[0].mac 	"rx channel utilization (%)" 	0.0003363696369637
scalar Topo.s4.eth[0].mac 	droppedPkNotForUs:count 	0
attr interpolationmode  none
attr source  dropPkNotForUs
attr title  "packets dropped/not for us, count"
scalar Topo.s4.eth[0].mac 	droppedPkNotForUs:sum(packetBytes) 	0
attr interpolationmode  none
attr source  dropPkNotForUs
attr title  "packets dropped/not for us, sum(packetBytes)"
scalar Topo.s4.eth[0].mac 	droppedPkIfaceDown:count 	0
attr interpolationmode  none
attr source  dropPkIfaceDown
attr title  "packets dropped/interface down, count"
scalar Topo.s4.eth[0].mac 	droppedPkIfaceDown:sum(packetBytes) 	0
attr interpolationmode  none
attr source  dropPkIfaceDown
attr title  "packets dropped/interface down, sum(packetBytes)"
scalar Topo.s4.eth[0].mac 	droppedPkBitError:count 	0
attr interpolationmode  none
attr source  dropPkBitError
attr title  "packets dropped/bit error, count"
scalar Topo.s4.eth[0].mac 	droppedPkBitError:sum(packetBytes) 	0
attr interpolationmode  none
attr source  dropPkBitError
attr title  "packets dropped/bit error, sum(packetBytes)"
scalar Topo.s4.eth[0].mac 	rxPkFromHL:count 	131
attr interpolationmode  none
attr source  rxPkFromHL
attr title  "packet bytes from higher layer, count"
scalar Topo.s4.eth[0].mac 	rxPkFromHL:sum(packetBytes) 	11762
attr interpolationmode  none
attr source  rxPkFromHL
attr title  "packet bytes from higher layer, sum(packetBytes)"
scalar Topo.s4.eth[0].mac 	rxPausePkUnits:count 	0
attr interpolationmode  none
attr title  "pause units received, count"
scalar Topo.s4.eth[0].mac 	rxPausePkUnits:sum 	0
attr interpolationmode  none
attr title  "pause units received, sum"
scalar Topo.s4.eth[0].mac 	txPausePkUnits:count 	0
attr interpolationmode  none
attr title  "pause units sent, count"
scalar Topo.s4.eth[0].mac 	txPausePkUnits:sum 	0
attr interpolationmode  none
attr title  "pause units sent, sum"
scalar Topo.s4.eth[0].mac 	rxPkOk:count 	130
attr interpolationmode  none
attr source  rxPkOk
attr title  "packets received OK, count"
scalar Topo.s4.eth[0].mac 	rxPkOk:sum(packetBytes) 	11700
attr interpolationmode  none
attr source  rxPkOk
attr title  "packets received OK, sum(packetBytes)"
scalar Topo.s4.eth[0].mac 	txPk:count 	131
attr interpolationmode  none
attr source  txPk
attr title  "packets transmitted, count"
scalar Topo.s4.eth[0].mac 	txPk:sum(packetBytes) 	11762
attr interpolationmode  none
attr source  txPk
attr title  "packets transmitted, sum(packetBytes)"
scalar Topo.s4.eth[0].mac 	passedUpPk:count 	130
attr interpolationmode  none
attr source  packetSentToUpper
attr title  "packets passed to higher layer, count"
scalar Topo.s4.eth[0].mac 	passedUpPk:sum(packetBytes) 	11700
attr interpolationmode  none
attr source  packetSentToUpper
attr title  "packets passed to higher layer, sum(packetBytes)"
scalar Topo.s4.eth[0].encap 	pauseSent:count 	0
attr title  "pause sent, count"
scalar Topo.s4.eth[0].encap 	pauseSent:sum 	0
attr title  "pause sent, sum"
scalar Topo.s4.eth[0].encap 	decapPk:count 	130
attr interpolationmode  none
attr source  decapPk
attr title  "packets decapsulated, count"
scalar Topo.s4.eth[0].encap 	decapPk:sum(packetBytes) 	8685
attr interpolationmode  none
attr source  decapPk
attr title  "packets decapsulated, sum(packetBytes)"
scalar Topo.s4.eth[0].encap 	encapPk:count 	131
attr interpolationmode  none
attr source  encapPk
attr title  "packets encapsulated, count"
scalar Topo.s4.eth[0].encap 	encapPk:sum(packetBytes) 	8695
attr interpolationmode  none
attr source  encapPk
attr title  "packets encapsulated, sum(packetBytes)"
scalar Topo.s4.etherMAC[0] 	"simulated time" 	303
scalar Topo.s4.etherMAC[0] 	full-duplex 	1
scalar Topo.s4.etherMAC[0] 	"frames/sec sent" 	2.009900990099
scalar Topo.s4.etherMAC[0] 	"frames/sec rcvd" 	1.996699669967
scalar Topo.s4.etherMAC[0] 	"bits/sec sent" 	7534.6798679868
scalar Topo.s4.etherMAC[0] 	"bits/sec rcvd" 	1022.3102310231
scalar Topo.s4.etherMAC[0] 	"rx channel idle (%)" 	99.99884990099
scalar Topo.s4.etherMAC[0] 	"rx channel utilization (%)" 	0.001150099009901
scalar Topo.s4.etherMAC[0] 	"rx channel collision (%)" 	0
scalar Topo.s4.etherMAC[0] 	collisions 	0
scalar Topo.s4.etherMAC[0] 	backoffs 	0
scalar Topo.s4.etherMAC[0] 	droppedPkNotForUs:count 	0
attr interpolationmode  none
attr source  dropPkNotForUs
attr title  "packets dropped/not for us, count"
scalar Topo.s4.etherMAC[0] 	droppedPkNotForUs:sum(packetBytes) 	0
attr interpolationmode  none
attr source  dropPkNotForUs
attr title  "packets dropped/not for us, sum(packetBytes)"
scalar Topo.s4.etherMAC[0] 	droppedPkIfaceDown:count 	0
attr interpolationmode  none
attr source  dropPkIfaceDown
attr title  "packets dropped/interface down, count"
scalar Topo.s4.etherMAC[0] 	droppedPkIfaceDown:sum(packetBytes) 	0
attr interpolationmode  none
attr source  dropPkIfaceDown
attr title  "packets dropped/interface down, sum(packetBytes)"
scalar Topo.s4.etherMAC[0] 	droppedPkBitError:count 	0
attr interpolationmode  none
attr source  dropPkBitError
attr title  "packets dropped/bit error, count"
scalar Topo.s4.etherMAC[0] 	droppedPkBitError:sum(packetBytes) 	0
attr interpolationmode  none
attr source  dropPkBitError
attr title  "packets dropped/bit error, sum(packetBytes)"
scalar Topo.s4.etherMAC[0] 	rxPkFromHL:count 	609
attr interpolationmode  none
attr source  rxPkFromHL
attr title  "packet bytes from higher layer, count"
scalar Topo.s4.etherMAC[0] 	rxPkFromHL:sum(packetBytes) 	285376
attr interpolationmode  none
attr source  rxPkFromHL
attr title  "packet bytes from higher layer, sum(packetBytes)"
scalar Topo.s4.etherMAC[0] 	rxPausePkUnits:count 	0
attr interpolationmode  none
attr title  "pause units received, count"
scalar Topo.s4.etherMAC[0] 	rxPausePkUnits:sum 	0
attr interpolationmode  none
attr title  "pause units received, sum"
scalar Topo.s4.etherMAC[0] 	txPausePkUnits:count 	0
attr interpolationmode  none
attr title  "pause units sent, count"
scalar Topo.s4.etherMAC[0] 	txPausePkUnits:sum 	0
attr interpolationmode  none
attr title  "pause units sent, sum"
scalar Topo.s4.etherMAC[0] 	rxPkOk:count 	605
attr interpolationmode  none
attr source  rxPkOk
attr title  "packets received OK, count"
scalar Topo.s4.etherMAC[0] 	rxPkOk:sum(packetBytes) 	38720
attr interpolationmode  none
attr source  rxPkOk
attr title  "packets received OK, sum(packetBytes)"
scalar Topo.s4.etherMAC[0] 	txPk:count 	609
attr interpolationmode  none
attr source  txPk
attr title  "packets transmitted, count"
scalar Topo.s4.etherMAC[0] 	txPk:sum(packetBytes) 	285376
attr interpolationmode  none
attr source  txPk
attr title  "packets transmitted, sum(packetBytes)"
scalar Topo.s4.etherMAC[0] 	backoff:count 	0
attr interpolationmode  none
attr title  "backoff, count"
scalar Topo.s4.etherMAC[0] 	collision:count 	0
attr interpolationmode  none
attr title  "collision, count"
scalar Topo.s4.etherMAC[0] 	passedUpPk:count 	605
attr interpolationmode  none
attr source  packetSentToUpper
attr title  "packets passed to higher layer, count"
scalar Topo.s4.etherMAC[0] 	passedUpPk:sum(packetBytes) 	38720
attr interpolationmode  none
attr source  packetSentToUpper
attr title  "packets passed to higher layer, sum(packetBytes)"
scalar Topo.s4.etherMAC[1] 	"simulated time" 	303
scalar Topo.s4.etherMAC[1] 	full-duplex 	1
scalar Topo.s4.etherMAC[1] 	"frames/sec sent" 	1.996699669967
scalar Topo.s4.etherMAC[1] 	"frames/sec rcvd" 	2.009900990099
scalar Topo.s4.etherMAC[1] 	"bits/sec sent" 	1022.3102310231
scalar Topo.s4.etherMAC[1] 	"bits/sec rcvd" 	7534.6798679868
scalar Topo.s4.etherMAC[1] 	"rx channel idle (%)" 	99.992336686469
scalar Topo.s4.etherMAC[1] 	"rx channel utilization (%)" 	0.0076633135313531
scalar Topo.s4.etherMAC[1] 	"rx channel collision (%)" 	0
scalar Topo.s4.etherMAC[1] 	collisions 	0
scalar Topo.s4.etherMAC[1] 	backoffs 	0
scalar Topo.s4.etherMAC[1] 	droppedPkNotForUs:count 	0
attr interpolationmode  none
attr source  dropPkNotForUs
attr title  "packets dropped/not for us, count"
scalar Topo.s4.etherMAC[1] 	droppedPkNotForUs:sum(packetBytes) 	0
attr interpolationmode  none
attr source  dropPkNotForUs
attr title  "packets dropped/not for us, sum(packetBytes)"
scalar Topo.s4.etherMAC[1] 	droppedPkIfaceDown:count 	0
attr interpolationmode  none
attr source  dropPkIfaceDown
attr title  "packets dropped/interface down, count"
scalar Topo.s4.etherMAC[1] 	droppedPkIfaceDown:sum(packetBytes) 	0
attr interpolationmode  none
attr source  dropPkIfaceDown
attr title  "packets dropped/interface down, sum(packetBytes)"
scalar Topo.s4.etherMAC[1] 	droppedPkBitError:count 	0
attr interpolationmode  none
attr source  dropPkBitError
attr title  "packets dropped/bit error, count"
scalar Topo.s4.etherMAC[1] 	droppedPkBitError:sum(packetBytes) 	0
attr interpolationmode  none
attr source  dropPkBitError
attr title  "packets dropped/bit error, sum(packetBytes)"
scalar Topo.s4.etherMAC[1] 	rxPkFromHL:count 	605
attr interpolationmode  none
attr source  rxPkFromHL
attr title  "packet bytes from higher layer, count"
scalar Topo.s4.etherMAC[1] 	rxPkFromHL:sum(packetBytes) 	38720
attr interpolationmode  none
attr source  rxPkFromHL
attr title  "packet bytes from higher layer, sum(packetBytes)"
scalar Topo.s4.etherMAC[1] 	rxPausePkUnits:count 	0
attr interpolationmode  none
attr title  "pause units received, count"
scalar Topo.s4.etherMAC[1] 	rxPausePkUnits:sum 	0
attr interpolationmode  none
attr title  "pause units received, sum"
scalar Topo.s4.etherMAC[1] 	txPausePkUnits:count 	0
attr interpolationmode  none
attr title  "pause units sent, count"
scalar Topo.s4.etherMAC[1] 	txPausePkUnits:sum 	0
attr interpolationmode  none
attr title  "pause units sent, sum"
scalar Topo.s4.etherMAC[1] 	rxPkOk:count 	609
attr interpolationmode  none
attr source  rxPkOk
attr title  "packets received OK, count"
scalar Topo.s4.etherMAC[1] 	rxPkOk:sum(packetBytes) 	285376
attr interpolationmode  none
attr source  rxPkOk
attr title  "packets received OK, sum(packetBytes)"
scalar Topo.s4.etherMAC[1] 	txPk:count 	605
attr interpolationmode  none
attr source  txPk
attr title  "packets transmitted, count"
scalar Topo.s4.etherMAC[1] 	txPk:sum(packetBytes) 	38720
attr interpolationmode  none
attr source  txPk
attr title  "packets transmitted, sum(packetBytes)"
scalar Topo.s4.etherMAC[1] 	backoff:count 	0
attr interpolationmode  none
attr title  "backoff, count"
scalar Topo.s4.etherMAC[1] 	collision:count 	0
attr interpolationmode  none
attr title  "collision, count"
scalar Topo.s4.etherMAC[1] 	passedUpPk:count 	609
attr interpolationmode  none
attr source  packetSentToUpper
attr title  "packets passed to higher layer, count"
scalar Topo.s4.etherMAC[1] 	passedUpPk:sum(packetBytes) 	285376
attr interpolationmode  none
attr source  packetSentToUpper
attr title  "packets passed to higher layer, sum(packetBytes)"
scalar Topo.s4.etherMAC[2] 	"simulated time" 	303
scalar Topo.s4.etherMAC[2] 	full-duplex 	1
scalar Topo.s4.etherMAC[2] 	"frames/sec sent" 	0
scalar Topo.s4.etherMAC[2] 	"frames/sec rcvd" 	0
scalar Topo.s4.etherMAC[2] 	"bits/sec sent" 	0
scalar Topo.s4.etherMAC[2] 	"bits/sec rcvd" 	0
scalar Topo.s4.etherMAC[2] 	"rx channel idle (%)" 	100
scalar Topo.s4.etherMAC[2] 	"rx channel utilization (%)" 	0
scalar Topo.s4.etherMAC[2] 	"rx channel collision (%)" 	0
scalar Topo.s4.etherMAC[2] 	collisions 	0
scalar Topo.s4.etherMAC[2] 	backoffs 	0
scalar Topo.s4.etherMAC[2] 	droppedPkNotForUs:count 	0
attr interpolationmode  none
attr source  dropPkNotForUs
attr title  "packets dropped/not for us, count"
scalar Topo.s4.etherMAC[2] 	droppedPkNotForUs:sum(packetBytes) 	0
attr interpolationmode  none
attr source  dropPkNotForUs
attr title  "packets dropped/not for us, sum(packetBytes)"
scalar Topo.s4.etherMAC[2] 	droppedPkIfaceDown:count 	0
attr interpolationmode  none
attr source  dropPkIfaceDown
attr title  "packets dropped/interface down, count"
scalar Topo.s4.etherMAC[2] 	droppedPkIfaceDown:sum(packetBytes) 	0
attr interpolationmode  none
attr source  dropPkIfaceDown
attr title  "packets dropped/interface down, sum(packetBytes)"
scalar Topo.s4.etherMAC[2] 	droppedPkBitError:count 	0
attr interpolationmode  none
attr source  dropPkBitError
attr title  "packets dropped/bit error, count"
scalar Topo.s4.etherMAC[2] 	droppedPkBitError:sum(packetBytes) 	0
attr interpolationmode  none
attr source  dropPkBitError
attr title  "packets dropped/bit error, sum(packetBytes)"
scalar Topo.s4.etherMAC[2] 	rxPkFromHL:count 	0
attr interpolationmode  none
attr source  rxPkFromHL
attr title  "packet bytes from higher layer, count"
scalar Topo.s4.etherMAC[2] 	rxPkFromHL:sum(packetBytes) 	0
attr interpolationmode  none
attr source  rxPkFromHL
attr title  "packet bytes from higher layer, sum(packetBytes)"
scalar Topo.s4.etherMAC[2] 	rxPausePkUnits:count 	0
attr interpolationmode  none
attr title  "pause units received, count"
scalar Topo.s4.etherMAC[2] 	rxPausePkUnits:sum 	0
attr interpolationmode  none
attr title  "pause units received, sum"
scalar Topo.s4.etherMAC[2] 	txPausePkUnits:count 	0
attr interpolationmode  none
attr title  "pause units sent, count"
scalar Topo.s4.etherMAC[2] 	txPausePkUnits:sum 	0
attr interpolationmode  none
attr title  "pause units sent, sum"
scalar Topo.s4.etherMAC[2] 	rxPkOk:count 	0
attr interpolationmode  none
attr source  rxPkOk
attr title  "packets received OK, count"
scalar Topo.s4.etherMAC[2] 	rxPkOk:sum(packetBytes) 	0
attr interpolationmode  none
attr source  rxPkOk
attr title  "packets received OK, sum(packetBytes)"
scalar Topo.s4.etherMAC[2] 	txPk:count 	0
attr interpolationmode  none
attr source  txPk
attr title  "packets transmitted, count"
scalar Topo.s4.etherMAC[2] 	txPk:sum(packetBytes) 	0
attr interpolationmode  none
attr source  txPk
attr title  "packets transmitted, sum(packetBytes)"
scalar Topo.s4.etherMAC[2] 	backoff:count 	0
attr interpolationmode  none
attr title  "backoff, count"
scalar Topo.s4.etherMAC[2] 	collision:count 	0
attr interpolationmode  none
attr title  "collision, count"
scalar Topo.s4.etherMAC[2] 	passedUpPk:count 	0
attr interpolationmode  none
attr source  packetSentToUpper
attr title  "packets passed to higher layer, count"
scalar Topo.s4.etherMAC[2] 	passedUpPk:sum(packetBytes) 	0
attr interpolationmode  none
attr source  packetSentToUpper
attr title  "packets passed to higher layer, sum(packetBytes)"
scalar Topo.s4.open_Flow_Processing 	droppedPkt:last 	-nan
attr source  droppedPkt
statistic Topo.s4.ofa_switch 	myRtt:stats
field count 7
field mean 0.00013610285342857
field stddev 6.1316599672747e-06
field sum 0.000952719974
field sqrsum 1.2989349050352e-07
field min 0.000125039997
field max 0.000143199995
attr interpolation  none
attr source  myRtt
attr title  "RTT for packet out direction, stats"
statistic Topo.s5.networkLayer.ip 	hops:stats
field count 0
field mean -nan
field stddev -nan
field sum 0
field sqrsum 0
field min -nan
field max -nan
attr interpolationmode  none
attr source  hops
attr title  "Hops number, stats"
scalar Topo.s5.networkLayer.arp 	failedARPResolution:count 	0
attr title  "ARP failed resolutions, count"
scalar Topo.s5.networkLayer.arp 	completedARPResolution:count 	3
attr title  "ARP completed resolutions, count"
scalar Topo.s5.networkLayer.arp 	initiatedARPResolution:count 	3
attr title  "ARP initiated resolutions, count"
scalar Topo.s5.networkLayer.arp 	sentReply:count 	0
attr title  "ARP replies sent, count"
scalar Topo.s5.networkLayer.arp 	sentReq:count 	3
attr title  "ARP request sent, count"
scalar Topo.s5.eth[0].mac 	"simulated time" 	303
scalar Topo.s5.eth[0].mac 	full-duplex 	1
scalar Topo.s5.eth[0].mac 	"frames/sec sent" 	0.50825082508251
scalar Topo.s5.eth[0].mac 	"frames/sec rcvd" 	0.5049504950495
scalar Topo.s5.eth[0].mac 	"bits/sec sent" 	432.60726072607
scalar Topo.s5.eth[0].mac 	"bits/sec rcvd" 	431.12871287129
scalar Topo.s5.eth[0].mac 	"rx channel idle (%)" 	99.999536554455
scalar Topo.s5.eth[0].mac 	"rx channel utilization (%)" 	0.00046344554455446
scalar Topo.s5.eth[0].mac 	droppedPkNotForUs:count 	0
attr interpolationmode  none
attr source  dropPkNotForUs
attr title  "packets dropped/not for us, count"
scalar Topo.s5.eth[0].mac 	droppedPkNotForUs:sum(packetBytes) 	0
attr interpolationmode  none
attr source  dropPkNotForUs
attr title  "packets dropped/not for us, sum(packetBytes)"
scalar Topo.s5.eth[0].mac 	droppedPkIfaceDown:count 	0
attr interpolationmode  none
attr source  dropPkIfaceDown
attr title  "packets dropped/interface down, count"
scalar Topo.s5.eth[0].mac 	droppedPkIfaceDown:sum(packetBytes) 	0
attr interpolationmode  none
attr source  dropPkIfaceDown
attr title  "packets dropped/interface down, sum(packetBytes)"
scalar Topo.s5.eth[0].mac 	droppedPkBitError:count 	0
attr interpolationmode  none
attr source  dropPkBitError
attr title  "packets dropped/bit error, count"
scalar Topo.s5.eth[0].mac 	droppedPkBitError:sum(packetBytes) 	0
attr interpolationmode  none
attr source  dropPkBitError
attr title  "packets dropped/bit error, sum(packetBytes)"
scalar Topo.s5.eth[0].mac 	rxPkFromHL:count 	154
attr interpolationmode  none
attr source  rxPkFromHL
attr title  "packet bytes from higher layer, count"
scalar Topo.s5.eth[0].mac 	rxPkFromHL:sum(packetBytes) 	16385
attr interpolationmode  none
attr source  rxPkFromHL
attr title  "packet bytes from higher layer, sum(packetBytes)"
scalar Topo.s5.eth[0].mac 	rxPausePkUnits:count 	0
attr interpolationmode  none
attr title  "pause units received, count"
scalar Topo.s5.eth[0].mac 	rxPausePkUnits:sum 	0
attr interpolationmode  none
attr title  "pause units received, sum"
scalar Topo.s5.eth[0].mac 	txPausePkUnits:count 	0
attr interpolationmode  none
attr title  "pause units sent, count"
scalar Topo.s5.eth[0].mac 	txPausePkUnits:sum 	0
attr interpolationmode  none
attr title  "pause units sent, sum"
scalar Topo.s5.eth[0].mac 	rxPkOk:count 	153
attr interpolationmode  none
attr source  rxPkOk
attr title  "packets received OK, count"
scalar Topo.s5.eth[0].mac 	rxPkOk:sum(packetBytes) 	16329
attr interpolationmode  none
attr source  rxPkOk
attr title  "packets received OK, sum(packetBytes)"
scalar Topo.s5.eth[0].mac 	txPk:count 	154
attr interpolationmode  none
attr source  txPk
attr title  "packets transmitted, count"
scalar Topo.s5.eth[0].mac 	txPk:sum(packetBytes) 	16385
attr interpolationmode  none
attr source  txPk
attr title  "packets transmitted, sum(packetBytes)"
scalar Topo.s5.eth[0].mac 	passedUpPk:count 	153
attr interpolationmode  none
attr source  packetSentToUpper
attr title  "packets passed to higher layer, count"
scalar Topo.s5.eth[0].mac 	passedUpPk:sum(packetBytes) 	16329
attr interpolationmode  none
attr source  packetSentToUpper
attr title  "packets passed to higher layer, sum(packetBytes)"
scalar Topo.s5.eth[0].encap 	pauseSent:count 	0
attr title  "pause sent, count"
scalar Topo.s5.eth[0].encap 	pauseSent:sum 	0
attr title  "pause sent, sum"
scalar Topo.s5.eth[0].encap 	decapPk:count 	153
attr interpolationmode  none
attr source  decapPk
attr title  "packets decapsulated, count"
scalar Topo.s5.eth[0].encap 	decapPk:sum(packetBytes) 	12835
attr interpolationmode  none
attr source  decapPk
attr title  "packets decapsulated, sum(packetBytes)"
scalar Topo.s5.eth[0].encap 	encapPk:count 	154
attr interpolationmode  none
attr source  encapPk
attr title  "packets encapsulated, count"
scalar Topo.s5.eth[0].encap 	encapPk:sum(packetBytes) 	12836
attr interpolationmode  none
attr source  encapPk
attr title  "packets encapsulated, sum(packetBytes)"
scalar Topo.s5.etherMAC[0] 	"simulated time" 	303
scalar Topo.s5.etherMAC[0] 	full-duplex 	1
scalar Topo.s5.etherMAC[0] 	"frames/sec sent" 	2
scalar Topo.s5.etherMAC[0] 	"frames/sec rcvd" 	1.993399339934
scalar Topo.s5.etherMAC[0] 	"bits/sec sent" 	7529.6105610561
scalar Topo.s5.etherMAC[0] 	"bits/sec rcvd" 	1020.6204620462
scalar Topo.s5.etherMAC[0] 	"rx channel idle (%)" 	99.99885180198
scalar Topo.s5.etherMAC[0] 	"rx channel utilization (%)" 	0.001148198019802
scalar Topo.s5.etherMAC[0] 	"rx channel collision (%)" 	0
scalar Topo.s5.etherMAC[0] 	collisions 	0
scalar Topo.s5.etherMAC[0] 	backoffs 	0
scalar Topo.s5.etherMAC[0] 	droppedPkNotForUs:count 	0
attr interpolationmode  none
attr source  dropPkNotForUs
attr title  "packets dropped/not for us, count"
scalar Topo.s5.etherMAC[0] 	droppedPkNotForUs:sum(packetBytes) 	0
attr interpolationmode  none
attr source  dropPkNotForUs
attr title  "packets dropped/not for us, sum(packetBytes)"
scalar Topo.s5.etherMAC[0] 	droppedPkIfaceDown:count 	0
attr interpolationmode  none
attr source  dropPkIfaceDown
attr title  "packets dropped/interface down, count"
scalar Topo.s5.etherMAC[0] 	droppedPkIfaceDown:sum(packetBytes) 	0
attr interpolationmode  none
attr source  dropPkIfaceDown
attr title  "packets dropped/interface down, sum(packetBytes)"
scalar Topo.s5.etherMAC[0] 	droppedPkBitError:count 	0
attr interpolationmode  none
attr source  dropPkBitError
attr title  "packets dropped/bit error, count"
scalar Topo.s5.etherMAC[0] 	droppedPkBitError:sum(packetBytes) 	0
attr interpolationmode  none
attr source  dropPkBitError
attr title  "packets dropped/bit error, sum(packetBytes)"
scalar Topo.s5.etherMAC[0] 	rxPkFromHL:count 	606
attr interpolationmode  none
attr source  rxPkFromHL
attr title  "packet bytes from higher layer, count"
scalar Topo.s5.etherMAC[0] 	rxPkFromHL:sum(packetBytes) 	285184
attr interpolationmode  none
attr source  rxPkFromHL
attr title  "packet bytes from higher layer, sum(packetBytes)"
scalar Topo.s5.etherMAC[0] 	rxPausePkUnits:count 	0
attr interpolationmode  none
attr title  "pause units received, count"
scalar Topo.s5.etherMAC[0] 	rxPausePkUnits:sum 	0
attr interpolationmode  none
attr title  "pause units received, sum"
scalar Topo.s5.etherMAC[0] 	txPausePkUnits:count 	0
attr interpolationmode  none
attr title  "pause units sent, count"
scalar Topo.s5.etherMAC[0] 	txPausePkUnits:sum 	0
attr interpolationmode  none
attr title  "pause units sent, sum"
scalar Topo.s5.etherMAC[0] 	rxPkOk:count 	604
attr interpolationmode  none
attr source  rxPkOk
attr title  "packets received OK, count"
scalar Topo.s5.etherMAC[0] 	rxPkOk:sum(packetBytes) 	38656
attr interpolationmode  none
attr source  rxPkOk
attr title  "packets received OK, sum(packetBytes)"
scalar Topo.s5.etherMAC[0] 	txPk:count 	606
attr interpolationmode  none
attr source  txPk
attr title  "packets transmitted, count"
scalar Topo.s5.etherMAC[0] 	txPk:sum(packetBytes) 	285184
attr interpolationmode  none
attr source  txPk
attr title  "packets transmitted, sum(packetBytes)"
scalar Topo.s5.etherMAC[0] 	backoff:count 	0
attr interpolationmode  none
attr title  "backoff, count"
scalar Topo.s5.etherMAC[0] 	collision:count 	0
attr interpolationmode  none
attr title  "collision, count"
scalar Topo.s5.etherMAC[0] 	passedUpPk:count 	604
attr interpolationmode  none
attr source  packetSentToUpper
attr title  "packets passed to higher layer, count"
scalar Topo.s5.etherMAC[0] 	passedUpPk:sum(packetBytes) 	38656
attr interpolationmode  none
attr source  packetSentToUpper
attr title  "packets passed to higher layer, sum(packetBytes)"
scalar Topo.s5.etherMAC[1] 	"simulated time" 	303
scalar Topo.s5.etherMAC[1] 	full-duplex 	1
scalar Topo.s5.etherMAC[1] 	"frames/sec sent" 	1.993399339934
scalar Topo.s5.etherMAC[1] 	"frames/sec rcvd" 	2
scalar Topo.s5.etherMAC[1] 	"bits/sec sent" 	1020.6204620462
scalar Topo.s5.etherMAC[1] 	"bits/sec rcvd" 	7529.6105610561
scalar Topo.s5.etherMAC[1] 	"rx channel idle (%)" 	99.992342389439
scalar Topo.s5.etherMAC[1] 	"rx channel utilization (%)" 	0.0076576105610561
scalar Topo.s5.etherMAC[1] 	"rx channel collision (%)" 	0
scalar Topo.s5.etherMAC[1] 	collisions 	0
scalar Topo.s5.etherMAC[1] 	backoffs 	0
scalar Topo.s5.etherMAC[1] 	droppedPkNotForUs:count 	0
attr interpolationmode  none
attr source  dropPkNotForUs
attr title  "packets dropped/not for us, count"
scalar Topo.s5.etherMAC[1] 	droppedPkNotForUs:sum(packetBytes) 	0
attr interpolationmode  none
attr source  dropPkNotForUs
attr title  "packets dropped/not for us, sum(packetBytes)"
scalar Topo.s5.etherMAC[1] 	droppedPkIfaceDown:count 	0
attr interpolationmode  none
attr source  dropPkIfaceDown
attr title  "packets dropped/interface down, count"
scalar Topo.s5.etherMAC[1] 	droppedPkIfaceDown:sum(packetBytes) 	0
attr interpolationmode  none
attr source  dropPkIfaceDown
attr title  "packets dropped/interface down, sum(packetBytes)"
scalar Topo.s5.etherMAC[1] 	droppedPkBitError:count 	0
attr interpolationmode  none
attr source  dropPkBitError
attr title  "packets dropped/bit error, count"
scalar Topo.s5.etherMAC[1] 	droppedPkBitError:sum(packetBytes) 	0
attr interpolationmode  none
attr source  dropPkBitError
attr title  "packets dropped/bit error, sum(packetBytes)"
scalar Topo.s5.etherMAC[1] 	rxPkFromHL:count 	604
attr interpolationmode  none
attr source  rxPkFromHL
attr title  "packet bytes from higher layer, count"
scalar Topo.s5.etherMAC[1] 	rxPkFromHL:sum(packetBytes) 	38656
attr interpolationmode  none
attr source  rxPkFromHL
attr title  "packet bytes from higher layer, sum(packetBytes)"
scalar Topo.s5.etherMAC[1] 	rxPausePkUnits:count 	0
attr interpolationmode  none
attr title  "pause units received, count"
scalar Topo.s5.etherMAC[1] 	rxPausePkUnits:sum 	0
attr interpolationmode  none
attr title  "pause units received, sum"
scalar Topo.s5.etherMAC[1] 	txPausePkUnits:count 	0
attr interpolationmode  none
attr title  "pause units sent, count"
scalar Topo.s5.etherMAC[1] 	txPausePkUnits:sum 	0
attr interpolationmode  none
attr title  "pause units sent, sum"
scalar Topo.s5.etherMAC[1] 	rxPkOk:count 	606
attr interpolationmode  none
attr source  rxPkOk
attr title  "packets received OK, count"
scalar Topo.s5.etherMAC[1] 	rxPkOk:sum(packetBytes) 	285184
attr interpolationmode  none
attr source  rxPkOk
attr title  "packets received OK, sum(packetBytes)"
scalar Topo.s5.etherMAC[1] 	txPk:count 	604
attr interpolationmode  none
attr source  txPk
attr title  "packets transmitted, count"
scalar Topo.s5.etherMAC[1] 	txPk:sum(packetBytes) 	38656
attr interpolationmode  none
attr source  txPk
attr title  "packets transmitted, sum(packetBytes)"
scalar Topo.s5.etherMAC[1] 	backoff:count 	0
attr interpolationmode  none
attr title  "backoff, count"
scalar Topo.s5.etherMAC[1] 	collision:count 	0
attr interpolationmode  none
attr title  "collision, count"
scalar Topo.s5.etherMAC[1] 	passedUpPk:count 	606
attr interpolationmode  none
attr source  packetSentToUpper
attr title  "packets passed to higher layer, count"
scalar Topo.s5.etherMAC[1] 	passedUpPk:sum(packetBytes) 	285184
attr interpolationmode  none
attr source  packetSentToUpper
attr title  "packets passed to higher layer, sum(packetBytes)"
scalar Topo.s5.etherMAC[2] 	"simulated time" 	303
scalar Topo.s5.etherMAC[2] 	full-duplex 	1
scalar Topo.s5.etherMAC[2] 	"frames/sec sent" 	0
scalar Topo.s5.etherMAC[2] 	"frames/sec rcvd" 	0
scalar Topo.s5.etherMAC[2] 	"bits/sec sent" 	0
scalar Topo.s5.etherMAC[2] 	"bits/sec rcvd" 	0
scalar Topo.s5.etherMAC[2] 	"rx channel idle (%)" 	100
scalar Topo.s5.etherMAC[2] 	"rx channel utilization (%)" 	0
scalar Topo.s5.etherMAC[2] 	"rx channel collision (%)" 	0
scalar Topo.s5.etherMAC[2] 	collisions 	0
scalar Topo.s5.etherMAC[2] 	backoffs 	0
scalar Topo.s5.etherMAC[2] 	droppedPkNotForUs:count 	0
attr interpolationmode  none
attr source  dropPkNotForUs
attr title  "packets dropped/not for us, count"
scalar Topo.s5.etherMAC[2] 	droppedPkNotForUs:sum(packetBytes) 	0
attr interpolationmode  none
attr source  dropPkNotForUs
attr title  "packets dropped/not for us, sum(packetBytes)"
scalar Topo.s5.etherMAC[2] 	droppedPkIfaceDown:count 	0
attr interpolationmode  none
attr source  dropPkIfaceDown
attr title  "packets dropped/interface down, count"
scalar Topo.s5.etherMAC[2] 	droppedPkIfaceDown:sum(packetBytes) 	0
attr interpolationmode  none
attr source  dropPkIfaceDown
attr title  "packets dropped/interface down, sum(packetBytes)"
scalar Topo.s5.etherMAC[2] 	droppedPkBitError:count 	0
attr interpolationmode  none
attr source  dropPkBitError
attr title  "packets dropped/bit error, count"
scalar Topo.s5.etherMAC[2] 	droppedPkBitError:sum(packetBytes) 	0
attr interpolationmode  none
attr source  dropPkBitError
attr title  "packets dropped/bit error, sum(packetBytes)"
scalar Topo.s5.etherMAC[2] 	rxPkFromHL:count 	0
attr interpolationmode  none
attr source  rxPkFromHL
attr title  "packet bytes from higher layer, count"
scalar Topo.s5.etherMAC[2] 	rxPkFromHL:sum(packetBytes) 	0
attr interpolationmode  none
attr source  rxPkFromHL
attr title  "packet bytes from higher layer, sum(packetBytes)"
scalar Topo.s5.etherMAC[2] 	rxPausePkUnits:count 	0
attr interpolationmode  none
attr title  "pause units received, count"
scalar Topo.s5.etherMAC[2] 	rxPausePkUnits:sum 	0
attr interpolationmode  none
attr title  "pause units received, sum"
scalar Topo.s5.etherMAC[2] 	txPausePkUnits:count 	0
attr interpolationmode  none
attr title  "pause units sent, count"
scalar Topo.s5.etherMAC[2] 	txPausePkUnits:sum 	0
attr interpolationmode  none
attr title  "pause units sent, sum"
scalar Topo.s5.etherMAC[2] 	rxPkOk:count 	0
attr interpolationmode  none
attr source  rxPkOk
attr title  "packets received OK, count"
scalar Topo.s5.etherMAC[2] 	rxPkOk:sum(packetBytes) 	0
attr interpolationmode  none
attr source  rxPkOk
attr title  "packets received OK, sum(packetBytes)"
scalar Topo.s5.etherMAC[2] 	txPk:count 	0
attr interpolationmode  none
attr source  txPk
attr title  "packets transmitted, count"
scalar Topo.s5.etherMAC[2] 	txPk:sum(packetBytes) 	0
attr interpolationmode  none
attr source  txPk
attr title  "packets transmitted, sum(packetBytes)"
scalar Topo.s5.etherMAC[2] 	backoff:count 	0
attr interpolationmode  none
attr title  "backoff, count"
scalar Topo.s5.etherMAC[2] 	collision:count 	0
attr interpolationmode  none
attr title  "collision, count"
scalar Topo.s5.etherMAC[2] 	passedUpPk:count 	0
attr interpolationmode  none
attr source  packetSentToUpper
attr title  "packets passed to higher layer, count"
scalar Topo.s5.etherMAC[2] 	passedUpPk:sum(packetBytes) 	0
attr interpolationmode  none
attr source  packetSentToUpper
attr title  "packets passed to higher layer, sum(packetBytes)"
scalar Topo.s5.open_Flow_Processing 	droppedPkt:last 	-nan
attr source  droppedPkt
statistic Topo.s5.ofa_switch 	myRtt:stats
field count 16
field mean 0.000128574995625
field stddev 1.9362034005032e-05
field sum 0.00205719993
field sqrsum 2.7012779741168e-07
field min 7.2239991e-05
field max 0.000143279995
attr interpolation  none
attr source  myRtt
attr title  "RTT for packet out direction, stats"
statistic Topo.s6.networkLayer.ip 	hops:stats
field count 0
field mean -nan
field stddev -nan
field sum 0
field sqrsum 0
field min -nan
field max -nan
attr interpolationmode  none
attr source  hops
attr title  "Hops number, stats"
[...]
scalar Topo.RTU2.eth[0].mac 	"rx channel idle (%)" 	99.99942019802
scalar Topo.RTU2.eth[0].mac 	"rx channel utilization (%)" 	0.00057980198019802
scalar Topo.RTU2.eth[0].mac 	droppedPkNotForUs:count 	0
attr interpolationmode  none
attr source  dropPkNotForUs
attr title  "packets dropped/not for us, count"
scalar Topo.RTU2.eth[0].mac 	droppedPkNotForUs:sum(packetBytes) 	0
attr interpolationmode  none
attr source  dropPkNotForUs
attr title  "packets dropped/not for us, sum(packetBytes)"
scalar Topo.RTU2.eth[0].mac 	droppedPkIfaceDown:count 	0
attr interpolationmode  none
attr source  dropPkIfaceDown
attr title  "packets dropped/interface down, count"
scalar Topo.RTU2.eth[0].mac 	droppedPkIfaceDown:sum(packetBytes) 	0
attr interpolationmode  none
attr source  dropPkIfaceDown
attr title  "packets dropped/interface down, sum(packetBytes)"
scalar Topo.RTU2.eth[0].mac 	droppedPkBitError:count 	0
attr interpolationmode  none
attr source  dropPkBitError
attr title  "packets dropped/bit error, count"
scalar Topo.RTU2.eth[0].mac 	droppedPkBitError:sum(packetBytes) 	0
attr interpolationmode  none
attr source  dropPkBitError
attr title  "packets dropped/bit error, sum(packetBytes)"
scalar Topo.RTU2.eth[0].mac 	rxPkFromHL:count 	306
attr interpolationmode  none
attr source  rxPkFromHL
attr title  "packet bytes from higher layer, count"
scalar Topo.RTU2.eth[0].mac 	rxPkFromHL:sum(packetBytes) 	142784
attr interpolationmode  none
attr source  rxPkFromHL
attr title  "packet bytes from higher layer, sum(packetBytes)"
scalar Topo.RTU2.eth[0].mac 	rxPausePkUnits:count 	0
attr interpolationmode  none
attr title  "pause units received, count"
scalar Topo.RTU2.eth[0].mac 	rxPausePkUnits:sum 	0
attr interpolationmode  none
attr title  "pause units received, sum"
scalar Topo.RTU2.eth[0].mac 	txPausePkUnits:count 	0
attr interpolationmode  none
attr title  "pause units sent, count"
scalar Topo.RTU2.eth[0].mac 	txPausePkUnits:sum 	0
attr interpolationmode  none
attr title  "pause units sent, sum"
scalar Topo.RTU2.eth[0].mac 	rxPkOk:count 	305
attr interpolationmode  none
attr source  rxPkOk
attr title  "packets received OK, count"
scalar Topo.RTU2.eth[0].mac 	rxPkOk:sum(packetBytes) 	19520
attr interpolationmode  none
attr source  rxPkOk
attr title  "packets received OK, sum(packetBytes)"
scalar Topo.RTU2.eth[0].mac 	txPk:count 	306
attr interpolationmode  none
attr source  txPk
attr title  "packets transmitted, count"
scalar Topo.RTU2.eth[0].mac 	txPk:sum(packetBytes) 	142784
attr interpolationmode  none
attr source  txPk
attr title  "packets transmitted, sum(packetBytes)"
scalar Topo.RTU2.eth[0].mac 	passedUpPk:count 	305
attr interpolationmode  none
attr source  packetSentToUpper
attr title  "packets passed to higher layer, count"
scalar Topo.RTU2.eth[0].mac 	passedUpPk:sum(packetBytes) 	19520
attr interpolationmode  none
attr source  packetSentToUpper
attr title  "packets passed to higher layer, sum(packetBytes)"
scalar Topo.RTU2.eth[0].encap 	pauseSent:count 	0
attr title  "pause sent, count"
scalar Topo.RTU2.eth[0].encap 	pauseSent:sum 	0
attr title  "pause sent, sum"
scalar Topo.RTU2.eth[0].encap 	decapPk:count 	305
attr interpolationmode  none
attr source  decapPk
attr title  "packets decapsulated, count"
scalar Topo.RTU2.eth[0].encap 	decapPk:sum(packetBytes) 	12169
attr interpolationmode  none
attr source  decapPk
attr title  "packets decapsulated, sum(packetBytes)"
scalar Topo.RTU2.eth[0].encap 	encapPk:count 	306
attr interpolationmode  none
attr source  encapPk
attr title  "packets encapsulated, count"
scalar Topo.RTU2.eth[0].encap 	encapPk:sum(packetBytes) 	137208
attr interpolationmode  none
attr source  encapPk
attr title  "packets encapsulated, sum(packetBytes)"
scalar Topo.RTU2.rtu 	rcvdPk:count 	1
attr interpolationmode  none
attr source  rcvdPk
attr title  "packets received, count"
scalar Topo.RTU2.rtu 	rcvdPk:sum(packetBytes) 	1
attr interpolationmode  none
attr source  rcvdPk
attr title  "packets received, sum(packetBytes)"
statistic Topo.RTU2.rtu 	endToEndDelay:histogram
field count 1
field mean 2.88e-05
field stddev -nan
field sum 2.88e-05
field sqrsum 8.2944e-10
field min 2.88e-05
field max 2.88e-05
attr interpolationmode  none
attr source  messageAge(rcvdPk)
attr title  "end-to-end delay, histogram"
attr unit  s
bin	-INF	0
bin	-0.4999712	0
bin	-0.46663786666667	0
bin	-0.43330453333333	0
bin	-0.3999712	0
bin	-0.36663786666667	0
bin	-0.33330453333333	0
bin	-0.2999712	0
bin	-0.26663786666667	0
bin	-0.23330453333333	0
bin	-0.1999712	0
bin	-0.16663786666667	0
bin	-0.13330453333333	0
bin	-0.0999712	0
bin	-0.066637866666667	0
bin	-0.033304533333333	0
bin	2.8799999999995e-05	1
bin	0.033362133333333	0
bin	0.066695466666667	0
bin	0.1000288	0
bin	0.13336213333333	0
bin	0.16669546666667	0
bin	0.2000288	0
bin	0.23336213333333	0
bin	0.26669546666667	0
bin	0.3000288	0
bin	0.33336213333333	0
bin	0.36669546666667	0
bin	0.4000288	0
bin	0.43336213333333	0
bin	0.46669546666667	0
bin	0.5000288	0
scalar Topo.RTU2.rtu 	sentPk:count 	100
attr interpolationmode  none
attr source  sentPk
attr title  "packets sent, count"
scalar Topo.RTU2.rtu 	sentPk:sum(packetBytes) 	125000
attr interpolationmode  none
attr source  sentPk
attr title  "packets sent, sum(packetBytes)"
statistic Topo.RTU3.networkLayer.ip 	hops:stats
field count 302
field mean 5
field stddev 0
field sum 1510
field sqrsum 7550
field min 5
field max 5
attr interpolationmode  none
attr source  hops
attr title  "Hops number, stats"
scalar Topo.RTU3.networkLayer.arp 	failedARPResolution:count 	0
attr title  "ARP failed resolutions, count"
scalar Topo.RTU3.networkLayer.arp 	completedARPResolution:count 	3
attr title  "ARP completed resolutions, count"
scalar Topo.RTU3.networkLayer.arp 	initiatedARPResolution:count 	3
attr title  "ARP initiated resolutions, count"
scalar Topo.RTU3.networkLayer.arp 	sentReply:count 	0
attr title  "ARP replies sent, count"
scalar Topo.RTU3.networkLayer.arp 	sentReq:count 	3
attr title  "ARP request sent, count"
scalar Topo.RTU3.lo0.lo 	droppedPkBitError:count 	0
attr interpolationmode  none
attr source  dropPkBitError
attr title  "packets dropped/bit error, count"
scalar Topo.RTU3.lo0.lo 	droppedPkBitError:sum(packetBytes) 	0
attr interpolationmode  none
attr source  dropPkBitError
attr title  "packets dropped/bit error, sum(packetBytes)"
scalar Topo.RTU3.lo0.lo 	rcvdPkFromHL:count 	0
attr interpolationmode  none
attr source  packetReceivedFromUpper
attr title  "packets received from higher layer, count"
scalar Topo.RTU3.lo0.lo 	rcvdPkFromHL:sum(packetBytes) 	0
attr interpolationmode  none
attr source  packetReceivedFromUpper
attr title  "packets received from higher layer, sum(packetBytes)"
scalar Topo.RTU3.lo0.lo 	passedUpPk:count 	0
attr interpolationmode  none
attr source  packetSentToUpper
attr title  "packets passed to higher layer, count"
scalar Topo.RTU3.lo0.lo 	passedUpPk:sum(packetBytes) 	0
attr interpolationmode  none
attr source  packetSentToUpper
attr title  "packets passed to higher layer, sum(packetBytes)"
scalar Topo.RTU3.eth[0].mac 	"simulated time" 	303
scalar Topo.RTU3.eth[0].mac 	full-duplex 	1
scalar Topo.RTU3.eth[0].mac 	"frames/sec sent" 	1.009900990099
scalar Topo.RTU3.eth[0].mac 	"frames/sec rcvd" 	1.006600660066
scalar Topo.RTU3.eth[0].mac 	"bits/sec sent" 	3769.8745874587
scalar Topo.RTU3.eth[0].mac 	"bits/sec rcvd" 	515.3795379538
scalar Topo.RTU3.eth[0].mac 	"rx channel idle (%)" 	99.99942019802
scalar Topo.RTU3.eth[0].mac 	"rx channel utilization (%)" 	0.00057980198019802
scalar Topo.RTU3.eth[0].mac 	droppedPkNotForUs:count 	0
attr interpolationmode  none
attr source  dropPkNotForUs
attr title  "packets dropped/not for us, count"
scalar Topo.RTU3.eth[0].mac 	droppedPkNotForUs:sum(packetBytes) 	0
attr interpolationmode  none
attr source  dropPkNotForUs
attr title  "packets dropped/not for us, sum(packetBytes)"
scalar Topo.RTU3.eth[0].mac 	droppedPkIfaceDown:count 	0
attr interpolationmode  none
attr source  dropPkIfaceDown
attr title  "packets dropped/interface down, count"
scalar Topo.RTU3.eth[0].mac 	droppedPkIfaceDown:sum(packetBytes) 	0
attr interpolationmode  none
attr source  dropPkIfaceDown
attr title  "packets dropped/interface down, sum(packetBytes)"
scalar Topo.RTU3.eth[0].mac 	droppedPkBitError:count 	0
attr interpolationmode  none
attr source  dropPkBitError
attr title  "packets dropped/bit error, count"
scalar Topo.RTU3.eth[0].mac 	droppedPkBitError:sum(packetBytes) 	0
attr interpolationmode  none
attr source  dropPkBitError
attr title  "packets dropped/bit error, sum(packetBytes)"
scalar Topo.RTU3.eth[0].mac 	rxPkFromHL:count 	306
attr interpolationmode  none
attr source  rxPkFromHL
attr title  "packet bytes from higher layer, count"
scalar Topo.RTU3.eth[0].mac 	rxPkFromHL:sum(packetBytes) 	142784
attr interpolationmode  none
attr source  rxPkFromHL
attr title  "packet bytes from higher layer, sum(packetBytes)"
scalar Topo.RTU3.eth[0].mac 	rxPausePkUnits:count 	0
attr interpolationmode  none
attr title  "pause units received, count"
scalar Topo.RTU3.eth[0].mac 	rxPausePkUnits:sum 	0
attr interpolationmode  none
attr title  "pause units received, sum"
scalar Topo.RTU3.eth[0].mac 	txPausePkUnits:count 	0
attr interpolationmode  none
attr title  "pause units sent, count"
scalar Topo.RTU3.eth[0].mac 	txPausePkUnits:sum 	0
attr interpolationmode  none
attr title  "pause units sent, sum"
scalar Topo.RTU3.eth[0].mac 	rxPkOk:count 	305
attr interpolationmode  none
attr source  rxPkOk
attr title  "packets received OK, count"
scalar Topo.RTU3.eth[0].mac 	rxPkOk:sum(packetBytes) 	19520
attr interpolationmode  none
attr source  rxPkOk
attr title  "packets received OK, sum(packetBytes)"
scalar Topo.RTU3.eth[0].mac 	txPk:count 	306
attr interpolationmode  none
attr source  txPk
attr title  "packets transmitted, count"
scalar Topo.RTU3.eth[0].mac 	txPk:sum(packetBytes) 	142784
attr interpolationmode  none
attr source  txPk
attr title  "packets transmitted, sum(packetBytes)"
scalar Topo.RTU3.eth[0].mac 	passedUpPk:count 	305
attr interpolationmode  none
attr source  packetSentToUpper
attr title  "packets passed to higher layer, count"
scalar Topo.RTU3.eth[0].mac 	passedUpPk:sum(packetBytes) 	19520
attr interpolationmode  none
attr source  packetSentToUpper
attr title  "packets passed to higher layer, sum(packetBytes)"
scalar Topo.RTU3.eth[0].encap 	pauseSent:count 	0
attr title  "pause sent, count"
scalar Topo.RTU3.eth[0].encap 	pauseSent:sum 	0
attr title  "pause sent, sum"
scalar Topo.RTU3.eth[0].encap 	decapPk:count 	305
attr interpolationmode  none
attr source  decapPk
attr title  "packets decapsulated, count"
scalar Topo.RTU3.eth[0].encap 	decapPk:sum(packetBytes) 	12169
attr interpolationmode  none
attr source  decapPk
attr title  "packets decapsulated, sum(packetBytes)"
scalar Topo.RTU3.eth[0].encap 	encapPk:count 	306
attr interpolationmode  none
attr source  encapPk
attr title  "packets encapsulated, count"
scalar Topo.RTU3.eth[0].encap 	encapPk:sum(packetBytes) 	137208
attr interpolationmode  none
attr source  encapPk
attr title  "packets encapsulated, sum(packetBytes)"
scalar Topo.RTU3.rtu 	rcvdPk:count 	1
attr interpolationmode  none
attr source  rcvdPk
attr title  "packets received, count"
scalar Topo.RTU3.rtu 	rcvdPk:sum(packetBytes) 	1
attr interpolationmode  none
attr source  rcvdPk
attr title  "packets received, sum(packetBytes)"
statistic Topo.RTU3.rtu 	endToEndDelay:histogram
field count 1
field mean 2.88e-05
field stddev -nan
field sum 2.88e-05
field sqrsum 8.2944e-10
field min 2.88e-05
field max 2.88e-05
attr interpolationmode  none
attr source  messageAge(rcvdPk)
attr title  "end-to-end delay, histogram"
attr unit  s
bin	-INF	0
bin	-0.4999712	0
bin	-0.46663786666667	0
bin	-0.43330453333333	0
bin	-0.3999712	0
bin	-0.36663786666667	0
bin	-0.33330453333333	0
bin	-0.2999712	0
bin	-0.26663786666667	0
bin	-0.23330453333333	0
bin	-0.1999712	0
bin	-0.16663786666667	0
bin	-0.13330453333333	0
bin	-0.0999712	0
bin	-0.066637866666667	0
bin	-0.033304533333333	0
bin	2.8799999999995e-05	1
bin	0.033362133333333	0
bin	0.066695466666667	0
bin	0.1000288	0
bin	0.13336213333333	0
bin	0.16669546666667	0
bin	0.2000288	0
bin	0.23336213333333	0
bin	0.26669546666667	0
bin	0.3000288	0
bin	0.33336213333333	0
bin	0.36669546666667	0
bin	0.4000288	0
bin	0.43336213333333	0
bin	0.46669546666667	0
bin	0.5000288	0
scalar Topo.RTU3.rtu 	sentPk:count 	100
attr interpolationmode  none
attr source  sentPk
attr title  "packets sent, count"
scalar Topo.RTU3.rtu 	sentPk:sum(packetBytes) 	125000
attr interpolationmode  none
attr source  sentPk
attr title  "packets sent, sum(packetBytes)"
statistic Topo.RTU4.networkLayer.ip 	hops:stats
field count 302
field mean 5
field stddev 0
field sum 1510
field sqrsum 7550
field min 5
field max 5
attr interpolationmode  none
attr source  hops
attr title  "Hops number, stats"
scalar Topo.RTU4.networkLayer.arp 	failedARPResolution:count 	0
attr title  "ARP failed resolutions, count"
scalar Topo.RTU4.networkLayer.arp 	completedARPResolution:count 	3
attr title  "ARP completed resolutions, count"
scalar Topo.RTU4.networkLayer.arp 	initiatedARPResolution:count 	3
attr title  "ARP initiated resolutions, count"
scalar Topo.RTU4.networkLayer.arp 	sentReply:count 	0
attr title  "ARP replies sent, count"
scalar Topo.RTU4.networkLayer.arp 	sentReq:count 	3
attr title  "ARP request sent, count"
scalar Topo.RTU4.lo0.lo 	droppedPkBitError:count 	0
attr interpolationmode  none
attr source  dropPkBitError
attr title  "packets dropped/bit error, count"
scalar Topo.RTU4.lo0.lo 	droppedPkBitError:sum(packetBytes) 	0
attr interpolationmode  none
attr source  dropPkBitError
attr title  "packets dropped/bit error, sum(packetBytes)"
scalar Topo.RTU4.lo0.lo 	rcvdPkFromHL:count 	0
attr interpolationmode  none
attr source  packetReceivedFromUpper
attr title  "packets received from higher layer, count"
scalar Topo.RTU4.lo0.lo 	rcvdPkFromHL:sum(packetBytes) 	0
attr interpolationmode  none
attr source  packetReceivedFromUpper
attr title  "packets received from higher layer, sum(packetBytes)"
scalar Topo.RTU4.lo0.lo 	passedUpPk:count 	0
attr interpolationmode  none
attr source  packetSentToUpper
attr title  "packets passed to higher layer, count"
scalar Topo.RTU4.lo0.lo 	passedUpPk:sum(packetBytes) 	0
attr interpolationmode  none
attr source  packetSentToUpper
attr title  "packets passed to higher layer, sum(packetBytes)"
scalar Topo.RTU4.eth[0].mac 	"simulated time" 	303
scalar Topo.RTU4.eth[0].mac 	full-duplex 	1
scalar Topo.RTU4.eth[0].mac 	"frames/sec sent" 	1.009900990099
scalar Topo.RTU4.eth[0].mac 	"frames/sec rcvd" 	1.006600660066
scalar Topo.RTU4.eth[0].mac 	"bits/sec sent" 	3769.8745874587
scalar Topo.RTU4.eth[0].mac 	"bits/sec rcvd" 	515.3795379538
scalar Topo.RTU4.eth[0].mac 	"rx channel idle (%)" 	99.99942019802
scalar Topo.RTU4.eth[0].mac 	"rx channel utilization (%)" 	0.00057980198019802
scalar Topo.RTU4.eth[0].mac 	droppedPkNotForUs:count 	0
attr interpolationmode  none
attr source  dropPkNotForUs
attr title  "packets dropped/not for us, count"
scalar Topo.RTU4.eth[0].mac 	droppedPkNotForUs:sum(packetBytes) 	0
attr interpolationmode  none
attr source  dropPkNotForUs
attr title  "packets dropped/not for us, sum(packetBytes)"
scalar Topo.RTU4.eth[0].mac 	droppedPkIfaceDown:count 	0
attr interpolationmode  none
attr source  dropPkIfaceDown
attr title  "packets dropped/interface down, count"
scalar Topo.RTU4.eth[0].mac 	droppedPkIfaceDown:sum(packetBytes) 	0
attr interpolationmode  none
attr source  dropPkIfaceDown
attr title  "packets dropped/interface down, sum(packetBytes)"
scalar Topo.RTU4.eth[0].mac 	droppedPkBitError:count 	0
attr interpolationmode  none
attr source  dropPkBitError
attr title  "packets dropped/bit error, count"
scalar Topo.RTU4.eth[0].mac 	droppedPkBitError:sum(packetBytes) 	0
attr interpolationmode  none
attr source  dropPkBitError
attr title  "packets dropped/bit error, sum(packetBytes)"
scalar Topo.RTU4.eth[0].mac 	rxPkFromHL:count 	306
attr interpolationmode  none
attr source  rxPkFromHL
attr title  "packet bytes from higher layer, count"
scalar Topo.RTU4.eth[0].mac 	rxPkFromHL:sum(packetBytes) 	142784
attr interpolationmode  none
attr source  rxPkFromHL
attr title  "packet bytes from higher layer, sum(packetBytes)"
scalar Topo.RTU4.eth[0].mac 	rxPausePkUnits:count 	0
attr interpolationmode  none
attr title  "pause units received, count"
scalar Topo.RTU4.eth[0].mac 	rxPausePkUnits:sum 	0
attr interpolationmode  none
attr title  "pause units received, sum"
scalar Topo.RTU4.eth[0].mac 	txPausePkUnits:count 	0
attr interpolationmode  none
attr title  "pause units sent, count"
scalar Topo.RTU4.eth[0].mac 	txPausePkUnits:sum 	0
attr interpolationmode  none
attr title  "pause units sent, sum"
scalar Topo.RTU4.eth[0].mac 	rxPkOk:count 	305
attr interpolationmode  none
attr source  rxPkOk
attr title  "packets received OK, count"
scalar Topo.RTU4.eth[0].mac 	rxPkOk:sum(packetBytes) 	19520
attr interpolationmode  none
attr source  rxPkOk
attr title  "packets received OK, sum(packetBytes)"
scalar Topo.RTU4.eth[0].mac 	txPk:count 	306
attr interpolationmode  none
attr source  txPk
attr title  "packets transmitted, count"
scalar Topo.RTU4.eth[0].mac 	txPk:sum(packetBytes) 	142784
attr interpolationmode  none
attr source  txPk
attr title  "packets transmitted, sum(packetBytes)"
scalar Topo.RTU4.eth[0].mac 	passedUpPk:count 	305
attr interpolationmode  none
attr source  packetSentToUpper
attr title  "packets passed to higher layer, count"
scalar Topo.RTU4.eth[0].mac 	passedUpPk:sum(packetBytes) 	19520
attr interpolationmode  none
attr source  packetSentToUpper
attr title  "packets passed to higher layer, sum(packetBytes)"
scalar Topo.RTU4.eth[0].encap 	pauseSent:count 	0
attr title  "pause sent, count"
scalar Topo.RTU4.eth[0].encap 	pauseSent:sum 	0
attr title  "pause sent, sum"
scalar Topo.RTU4.eth[0].encap 	decapPk:count 	305
attr interpolationmode  none
attr source  decapPk
attr title  "packets decapsulated, count"
scalar Topo.RTU4.eth[0].encap 	decapPk:sum(packetBytes) 	12169
attr interpolationmode  none
attr source  decapPk
attr title  "packets decapsulated, sum(packetBytes)"
scalar Topo.RTU4.eth[0].encap 	encapPk:count 	306
attr interpolationmode  none
attr source  encapPk
attr title  "packets encapsulated, count"
scalar Topo.RTU4.eth[0].encap 	encapPk:sum(packetBytes) 	137208
attr interpolationmode  none
attr source  encapPk
attr title  "packets encapsulated, sum(packetBytes)"
scalar Topo.RTU4.rtu 	rcvdPk:count 	1
attr interpolationmode  none
attr source  rcvdPk
attr title  "packets received, count"
scalar Topo.RTU4.rtu 	rcvdPk:sum(packetBytes) 	1
attr interpolationmode  none
attr source  rcvdPk
attr title  "packets received, sum(packetBytes)"
statistic Topo.RTU4.rtu 	endToEndDelay:histogram
field count 1
field mean 2.88e-05
field stddev -nan
field sum 2.88e-05
field sqrsum 8.2944e-10
field min 2.88e-05
field max 2.88e-05
attr interpolationmode  none
attr source  messageAge(rcvdPk)
attr title  "end-to-end delay, histogram"
attr unit  s
bin	-INF	0
bin	-0.4999712	0
bin	-0.46663786666667	0
bin	-0.43330453333333	0
bin	-0.3999712	0
bin	-0.36663786666667	0
bin	-0.33330453333333	0
bin	-0.2999712	0
bin	-0.26663786666667	0
bin	-0.23330453333333	0
bin	-0.1999712	0
bin	-0.16663786666667	0
bin	-0.13330453333333	0
bin	-0.0999712	0
bin	-0.066637866666667	0
bin	-0.033304533333333	0
bin	2.8799999999995e-05	1
bin	0.033362133333333	0
bin	0.066695466666667	0
bin	0.1000288	0
bin	0.13336213333333	0
bin	0.16669546666667	0
bin	0.2000288	0
bin	0.23336213333333	0
bin	0.26669546666667	0
bin	0.3000288	0
bin	0.33336213333333	0
bin	0.36669546666667	0
bin	0.4000288	0
bin	0.43336213333333	0
bin	0.46669546666667	0
bin	0.5000288	0
scalar Topo.RTU4.rtu 	sentPk:count 	100
attr interpolationmode  none
attr source  sentPk
attr title  "packets sent, count"
scalar Topo.RTU4.rtu 	sentPk:sum(packetBytes) 	125000
attr interpolationmode  none
attr source  sentPk
attr title  "packets sent, sum(packetBytes)"
