version 2
run hide_alert-0-20170131-10:18:57-7100
attr configname hide_alert
attr datetime 20170131-10:18:57
attr experiment hide_alert
attr inifile omnetpp.ini
attr iterationvars ""
attr iterationvars2 $repetition=0
attr measurement ""
attr network Topo
attr processid 7100
attr repetition 0
attr replication #0
attr resultdir results
attr runnumber 0
attr seedset 0

scalar Topo.s1.networkLayer.arp 	failedARPResolution:count 	0
attr title  "ARP failed resolutions, count"
scalar Topo.s1.networkLayer.arp 	completedARPResolution:count 	3
attr title  "ARP completed resolutions, count"
scalar Topo.s1.networkLayer.arp 	initiatedARPResolution:count 	3
attr title  "ARP initiated resolutions, count"
scalar Topo.s1.networkLayer.arp 	sentReply:count 	0
attr title  "ARP replies sent, count"
scalar Topo.s1.networkLayer.arp 	sentReq:count 	3
attr title  "ARP request sent, count"
scalar Topo.s1.eth[0].mac 	"simulated time" 	303
scalar Topo.s1.eth[0].mac 	full-duplex 	1
scalar Topo.s1.eth[0].mac 	"frames/sec sent" 	0.25742574257426
scalar Topo.s1.eth[0].mac 	"frames/sec rcvd" 	0.25412541254125
scalar Topo.s1.eth[0].mac 	"bits/sec sent" 	173.09570957096
scalar Topo.s1.eth[0].mac 	"bits/sec rcvd" 	171.82838283828
scalar Topo.s1.eth[0].mac 	"rx channel idle (%)" 	99.999981190759
scalar Topo.s1.eth[0].mac 	"rx channel utilization (%)" 	1.8809240924092e-05
scalar Topo.s1.eth[0].mac 	droppedPkNotForUs:count 	0
attr interpolationmode  none
attr source  dropPkNotForUs
attr title  "packets dropped/not for us, count"
scalar Topo.s1.eth[0].mac 	droppedPkNotForUs:sum(packetBytes) 	0
attr interpolationmode  none
attr source  dropPkNotForUs
attr title  "packets dropped/not for us, sum(packetBytes)"
scalar Topo.s1.eth[0].mac 	droppedPkIfaceDown:count 	0
attr interpolationmode  none
attr source  dropPkIfaceDown
attr title  "packets dropped/interface down, count"
scalar Topo.s1.eth[0].mac 	droppedPkIfaceDown:sum(packetBytes) 	0
attr interpolationmode  none
attr source  dropPkIfaceDown
attr title  "packets dropped/interface down, sum(packetBytes)"
scalar Topo.s1.eth[0].mac 	droppedPkBitError:count 	0
attr interpolationmode  none
attr source  dropPkBitError
attr title  "packets dropped/bit error, count"
scalar Topo.s1.eth[0].mac 	droppedPkBitError:sum(packetBytes) 	0
attr interpolationmode  none
attr source  dropPkBitError
attr title  "packets dropped/bit error, sum(packetBytes)"
scalar Topo.s1.eth[0].mac 	rxPkFromHL:count 	78
attr interpolationmode  none
attr source  rxPkFromHL
attr title  "packet bytes from higher layer, count"
scalar Topo.s1.eth[0].mac 	rxPkFromHL:sum(packetBytes) 	6556
attr interpolationmode  none
attr source  rxPkFromHL
attr title  "packet bytes from higher layer, sum(packetBytes)"
scalar Topo.s1.eth[0].mac 	rxPausePkUnits:count 	0
attr interpolationmode  none
attr title  "pause units received, count"
scalar Topo.s1.eth[0].mac 	rxPausePkUnits:sum 	0
attr interpolationmode  none
attr title  "pause units received, sum"
scalar Topo.s1.eth[0].mac 	txPausePkUnits:count 	0
attr interpolationmode  none
attr title  "pause units sent, count"
scalar Topo.s1.eth[0].mac 	txPausePkUnits:sum 	0
attr interpolationmode  none
attr title  "pause units sent, sum"
scalar Topo.s1.eth[0].mac 	rxPkOk:count 	77
attr interpolationmode  none
attr source  rxPkOk
attr title  "packets received OK, count"
scalar Topo.s1.eth[0].mac 	rxPkOk:sum(packetBytes) 	6508
attr interpolationmode  none
attr source  rxPkOk
attr title  "packets received OK, sum(packetBytes)"
scalar Topo.s1.eth[0].mac 	txPk:count 	78
attr interpolationmode  none
attr source  txPk
attr title  "packets transmitted, count"
scalar Topo.s1.eth[0].mac 	txPk:sum(packetBytes) 	6556
attr interpolationmode  none
attr source  txPk
attr title  "packets transmitted, sum(packetBytes)"
scalar Topo.s1.eth[0].mac 	passedUpPk:count 	77
attr interpolationmode  none
attr source  packetSentToUpper
attr title  "packets passed to higher layer, count"
scalar Topo.s1.eth[0].mac 	passedUpPk:sum(packetBytes) 	6508
attr interpolationmode  none
attr source  packetSentToUpper
attr title  "packets passed to higher layer, sum(packetBytes)"
scalar Topo.s1.eth[0].encap 	pauseSent:count 	0
attr title  "pause sent, count"
scalar Topo.s1.eth[0].encap 	pauseSent:sum 	0
attr title  "pause sent, sum"
scalar Topo.s1.eth[0].encap 	decapPk:count 	77
attr interpolationmode  none
attr source  decapPk
attr title  "packets decapsulated, count"
scalar Topo.s1.eth[0].encap 	decapPk:sum(packetBytes) 	4767
attr interpolationmode  none
attr source  decapPk
attr title  "packets decapsulated, sum(packetBytes)"
scalar Topo.s1.eth[0].encap 	encapPk:count 	78
attr interpolationmode  none
attr source  encapPk
attr title  "packets encapsulated, count"
scalar Topo.s1.eth[0].encap 	encapPk:sum(packetBytes) 	4805
attr interpolationmode  none
attr source  encapPk
attr title  "packets encapsulated, sum(packetBytes)"
scalar Topo.s1.etherMAC[0] 	"simulated time" 	303
scalar Topo.s1.etherMAC[0] 	full-duplex 	1
scalar Topo.s1.etherMAC[0] 	"frames/sec sent" 	1.3993399339934
scalar Topo.s1.etherMAC[0] 	"frames/sec rcvd" 	1.3861386138614
scalar Topo.s1.etherMAC[0] 	"bits/sec sent" 	716.46204620462
scalar Topo.s1.etherMAC[0] 	"bits/sec rcvd" 	709.70297029703
scalar Topo.s1.etherMAC[0] 	"rx channel idle (%)" 	99.999920158416
scalar Topo.s1.etherMAC[0] 	"rx channel utilization (%)" 	7.9841584158416e-05
scalar Topo.s1.etherMAC[0] 	"rx channel collision (%)" 	0
scalar Topo.s1.etherMAC[0] 	collisions 	0
scalar Topo.s1.etherMAC[0] 	backoffs 	0
scalar Topo.s1.etherMAC[0] 	droppedPkNotForUs:count 	0
attr interpolationmode  none
attr source  dropPkNotForUs
attr title  "packets dropped/not for us, count"
scalar Topo.s1.etherMAC[0] 	droppedPkNotForUs:sum(packetBytes) 	0
attr interpolationmode  none
attr source  dropPkNotForUs
attr title  "packets dropped/not for us, sum(packetBytes)"
scalar Topo.s1.etherMAC[0] 	droppedPkIfaceDown:count 	0
attr interpolationmode  none
attr source  dropPkIfaceDown
attr title  "packets dropped/interface down, count"
scalar Topo.s1.etherMAC[0] 	droppedPkIfaceDown:sum(packetBytes) 	0
attr interpolationmode  none
attr source  dropPkIfaceDown
attr title  "packets dropped/interface down, sum(packetBytes)"
scalar Topo.s1.etherMAC[0] 	droppedPkBitError:count 	0
attr interpolationmode  none
attr source  dropPkBitError
attr title  "packets dropped/bit error, count"
scalar Topo.s1.etherMAC[0] 	droppedPkBitError:sum(packetBytes) 	0
attr interpolationmode  none
attr source  dropPkBitError
attr title  "packets dropped/bit error, sum(packetBytes)"
scalar Topo.s1.etherMAC[0] 	rxPkFromHL:count 	424
attr interpolationmode  none
attr source  rxPkFromHL
attr title  "packet bytes from higher layer, count"
scalar Topo.s1.etherMAC[0] 	rxPkFromHL:sum(packetBytes) 	27136
attr interpolationmode  none
attr source  rxPkFromHL
attr title  "packet bytes from higher layer, sum(packetBytes)"
scalar Topo.s1.etherMAC[0] 	rxPausePkUnits:count 	0
attr interpolationmode  none
attr title  "pause units received, count"
scalar Topo.s1.etherMAC[0] 	rxPausePkUnits:sum 	0
attr interpolationmode  none
attr title  "pause units received, sum"
scalar Topo.s1.etherMAC[0] 	txPausePkUnits:count 	0
attr interpolationmode  none
attr title  "pause units sent, count"
scalar Topo.s1.etherMAC[0] 	txPausePkUnits:sum 	0
attr interpolationmode  none
attr title  "pause units sent, sum"
scalar Topo.s1.etherMAC[0] 	rxPkOk:count 	420
attr interpolationmode  none
attr source  rxPkOk
attr title  "packets received OK, count"
scalar Topo.s1.etherMAC[0] 	rxPkOk:sum(packetBytes) 	26880
attr interpolationmode  none
attr source  rxPkOk
attr title  "packets received OK, sum(packetBytes)"
scalar Topo.s1.etherMAC[0] 	txPk:count 	424
attr interpolationmode  none
attr source  txPk
attr title  "packets transmitted, count"
scalar Topo.s1.etherMAC[0] 	txPk:sum(packetBytes) 	27136
attr interpolationmode  none
attr source  txPk
attr title  "packets transmitted, sum(packetBytes)"
scalar Topo.s1.etherMAC[0] 	backoff:count 	0
attr interpolationmode  none
attr title  "backoff, count"
scalar Topo.s1.etherMAC[0] 	collision:count 	0
attr interpolationmode  none
attr title  "collision, count"
scalar Topo.s1.etherMAC[0] 	passedUpPk:count 	420
attr interpolationmode  none
attr source  packetSentToUpper
attr title  "packets passed to higher layer, count"
scalar Topo.s1.etherMAC[0] 	passedUpPk:sum(packetBytes) 	26880
attr interpolationmode  none
attr source  packetSentToUpper
attr title  "packets passed to higher layer, sum(packetBytes)"
scalar Topo.s1.etherMAC[1] 	"simulated time" 	303
scalar Topo.s1.etherMAC[1] 	full-duplex 	1
scalar Topo.s1.etherMAC[1] 	"frames/sec sent" 	0.67326732673267
scalar Topo.s1.etherMAC[1] 	"frames/sec rcvd" 	0.67986798679868
scalar Topo.s1.etherMAC[1] 	"bits/sec sent" 	344.71287128713
scalar Topo.s1.etherMAC[1] 	"bits/sec rcvd" 	348.09240924092
scalar Topo.s1.etherMAC[1] 	"rx channel idle (%)" 	99.999960839604
scalar Topo.s1.etherMAC[1] 	"rx channel utilization (%)" 	3.9160396039604e-05
scalar Topo.s1.etherMAC[1] 	"rx channel collision (%)" 	0
scalar Topo.s1.etherMAC[1] 	collisions 	0
scalar Topo.s1.etherMAC[1] 	backoffs 	0
scalar Topo.s1.etherMAC[1] 	droppedPkNotForUs:count 	0
attr interpolationmode  none
attr source  dropPkNotForUs
attr title  "packets dropped/not for us, count"
scalar Topo.s1.etherMAC[1] 	droppedPkNotForUs:sum(packetBytes) 	0
attr interpolationmode  none
attr source  dropPkNotForUs
attr title  "packets dropped/not for us, sum(packetBytes)"
scalar Topo.s1.etherMAC[1] 	droppedPkIfaceDown:count 	0
attr interpolationmode  none
attr source  dropPkIfaceDown
attr title  "packets dropped/interface down, count"
scalar Topo.s1.etherMAC[1] 	droppedPkIfaceDown:sum(packetBytes) 	0
attr interpolationmode  none
attr source  dropPkIfaceDown
attr title  "packets dropped/interface down, sum(packetBytes)"
scalar Topo.s1.etherMAC[1] 	droppedPkBitError:count 	0
attr interpolationmode  none
attr source  dropPkBitError
attr title  "packets dropped/bit error, count"
scalar Topo.s1.etherMAC[1] 	droppedPkBitError:sum(packetBytes) 	0
attr interpolationmode  none
attr source  dropPkBitError
attr title  "packets dropped/bit error, sum(packetBytes)"
scalar Topo.s1.etherMAC[1] 	rxPkFromHL:count 	204
attr interpolationmode  none
attr source  rxPkFromHL
attr title  "packet bytes from higher layer, count"
scalar Topo.s1.etherMAC[1] 	rxPkFromHL:sum(packetBytes) 	13056
attr interpolationmode  none
attr source  rxPkFromHL
attr title  "packet bytes from higher layer, sum(packetBytes)"
scalar Topo.s1.etherMAC[1] 	rxPausePkUnits:count 	0
attr interpolationmode  none
attr title  "pause units received, count"
scalar Topo.s1.etherMAC[1] 	rxPausePkUnits:sum 	0
attr interpolationmode  none
attr title  "pause units received, sum"
scalar Topo.s1.etherMAC[1] 	txPausePkUnits:count 	0
attr interpolationmode  none
attr title  "pause units sent, count"
scalar Topo.s1.etherMAC[1] 	txPausePkUnits:sum 	0
attr interpolationmode  none
attr title  "pause units sent, sum"
scalar Topo.s1.etherMAC[1] 	rxPkOk:count 	206
attr interpolationmode  none
attr source  rxPkOk
attr title  "packets received OK, count"
scalar Topo.s1.etherMAC[1] 	rxPkOk:sum(packetBytes) 	13184
attr interpolationmode  none
attr source  rxPkOk
attr title  "packets received OK, sum(packetBytes)"
scalar Topo.s1.etherMAC[1] 	txPk:count 	204
attr interpolationmode  none
attr source  txPk
attr title  "packets transmitted, count"
scalar Topo.s1.etherMAC[1] 	txPk:sum(packetBytes) 	13056
attr interpolationmode  none
attr source  txPk
attr title  "packets transmitted, sum(packetBytes)"
scalar Topo.s1.etherMAC[1] 	backoff:count 	0
attr interpolationmode  none
attr title  "backoff, count"
scalar Topo.s1.etherMAC[1] 	collision:count 	0
attr interpolationmode  none
attr title  "collision, count"
scalar Topo.s1.etherMAC[1] 	passedUpPk:count 	206
attr interpolationmode  none
attr source  packetSentToUpper
attr title  "packets passed to higher layer, count"
scalar Topo.s1.etherMAC[1] 	passedUpPk:sum(packetBytes) 	13184
attr interpolationmode  none
attr source  packetSentToUpper
attr title  "packets passed to higher layer, sum(packetBytes)"
scalar Topo.s1.etherMAC[2] 	"simulated time" 	303
scalar Topo.s1.etherMAC[2] 	full-duplex 	1
scalar Topo.s1.etherMAC[2] 	"frames/sec sent" 	0.67326732673267
scalar Topo.s1.etherMAC[2] 	"frames/sec rcvd" 	0.67986798679868
scalar Topo.s1.etherMAC[2] 	"bits/sec sent" 	344.71287128713
scalar Topo.s1.etherMAC[2] 	"bits/sec rcvd" 	348.09240924092
scalar Topo.s1.etherMAC[2] 	"rx channel idle (%)" 	99.999960839604
scalar Topo.s1.etherMAC[2] 	"rx channel utilization (%)" 	3.9160396039604e-05
scalar Topo.s1.etherMAC[2] 	"rx channel collision (%)" 	0
scalar Topo.s1.etherMAC[2] 	collisions 	0
scalar Topo.s1.etherMAC[2] 	backoffs 	0
scalar Topo.s1.etherMAC[2] 	droppedPkNotForUs:count 	0
attr interpolationmode  none
attr source  dropPkNotForUs
attr title  "packets dropped/not for us, count"
scalar Topo.s1.etherMAC[2] 	droppedPkNotForUs:sum(packetBytes) 	0
attr interpolationmode  none
attr source  dropPkNotForUs
attr title  "packets dropped/not for us, sum(packetBytes)"
scalar Topo.s1.etherMAC[2] 	droppedPkIfaceDown:count 	0
attr interpolationmode  none
attr source  dropPkIfaceDown
attr title  "packets dropped/interface down, count"
scalar Topo.s1.etherMAC[2] 	droppedPkIfaceDown:sum(packetBytes) 	0
attr interpolationmode  none
attr source  dropPkIfaceDown
attr title  "packets dropped/interface down, sum(packetBytes)"
scalar Topo.s1.etherMAC[2] 	droppedPkBitError:count 	0
attr interpolationmode  none
attr source  dropPkBitError
attr title  "packets dropped/bit error, count"
scalar Topo.s1.etherMAC[2] 	droppedPkBitError:sum(packetBytes) 	0
attr interpolationmode  none
attr source  dropPkBitError
attr title  "packets dropped/bit error, sum(packetBytes)"
scalar Topo.s1.etherMAC[2] 	rxPkFromHL:count 	204
attr interpolationmode  none
attr source  rxPkFromHL
attr title  "packet bytes from higher layer, count"
scalar Topo.s1.etherMAC[2] 	rxPkFromHL:sum(packetBytes) 	13056
attr interpolationmode  none
attr source  rxPkFromHL
attr title  "packet bytes from higher layer, sum(packetBytes)"
scalar Topo.s1.etherMAC[2] 	rxPausePkUnits:count 	0
attr interpolationmode  none
attr title  "pause units received, count"
scalar Topo.s1.etherMAC[2] 	rxPausePkUnits:sum 	0
attr interpolationmode  none
attr title  "pause units received, sum"
scalar Topo.s1.etherMAC[2] 	txPausePkUnits:count 	0
attr interpolationmode  none
attr title  "pause units sent, count"
scalar Topo.s1.etherMAC[2] 	txPausePkUnits:sum 	0
attr interpolationmode  none
attr title  "pause units sent, sum"
scalar Topo.s1.etherMAC[2] 	rxPkOk:count 	206
attr interpolationmode  none
attr source  rxPkOk
attr title  "packets received OK, count"
scalar Topo.s1.etherMAC[2] 	rxPkOk:sum(packetBytes) 	13184
attr interpolationmode  none
attr source  rxPkOk
attr title  "packets received OK, sum(packetBytes)"
scalar Topo.s1.etherMAC[2] 	txPk:count 	204
attr interpolationmode  none
attr source  txPk
attr title  "packets transmitted, count"
scalar Topo.s1.etherMAC[2] 	txPk:sum(packetBytes) 	13056
attr interpolationmode  none
attr source  txPk
attr title  "packets transmitted, sum(packetBytes)"
scalar Topo.s1.etherMAC[2] 	backoff:count 	0
attr interpolationmode  none
attr title  "backoff, count"
scalar Topo.s1.etherMAC[2] 	collision:count 	0
attr interpolationmode  none
attr title  "collision, count"
scalar Topo.s1.etherMAC[2] 	passedUpPk:count 	206
attr interpolationmode  none
attr source  packetSentToUpper
attr title  "packets passed to higher layer, count"
scalar Topo.s1.etherMAC[2] 	passedUpPk:sum(packetBytes) 	13184
attr interpolationmode  none
attr source  packetSentToUpper
attr title  "packets passed to higher layer, sum(packetBytes)"
scalar Topo.s1.open_Flow_Processing 	droppedPkt:last 	-nan
attr source  droppedPkt
scalar Topo.s2.networkLayer.arp 	failedARPResolution:count 	0
attr title  "ARP failed resolutions, count"
scalar Topo.s2.networkLayer.arp 	completedARPResolution:count 	3
attr title  "ARP completed resolutions, count"
scalar Topo.s2.networkLayer.arp 	initiatedARPResolution:count 	3
attr title  "ARP initiated resolutions, count"
scalar Topo.s2.networkLayer.arp 	sentReply:count 	0
attr title  "ARP replies sent, count"
scalar Topo.s2.networkLayer.arp 	sentReq:count 	3
attr title  "ARP request sent, count"
scalar Topo.s2.eth[0].mac 	"simulated time" 	303
scalar Topo.s2.eth[0].mac 	full-duplex 	1
scalar Topo.s2.eth[0].mac 	"frames/sec sent" 	0.11881188118812
scalar Topo.s2.eth[0].mac 	"frames/sec rcvd" 	0.11551155115512
scalar Topo.s2.eth[0].mac 	"bits/sec sent" 	60.831683168317
scalar Topo.s2.eth[0].mac 	"bits/sec rcvd" 	59.141914191419
scalar Topo.s2.eth[0].mac 	"rx channel idle (%)" 	99.999993346535
scalar Topo.s2.eth[0].mac 	"rx channel utilization (%)" 	6.6534653465347e-06
scalar Topo.s2.eth[0].mac 	droppedPkNotForUs:count 	0
attr interpolationmode  none
attr source  dropPkNotForUs
attr title  "packets dropped/not for us, count"
scalar Topo.s2.eth[0].mac 	droppedPkNotForUs:sum(packetBytes) 	0
attr interpolationmode  none
attr source  dropPkNotForUs
attr title  "packets dropped/not for us, sum(packetBytes)"
scalar Topo.s2.eth[0].mac 	droppedPkIfaceDown:count 	0
attr interpolationmode  none
attr source  dropPkIfaceDown
attr title  "packets dropped/interface down, count"
scalar Topo.s2.eth[0].mac 	droppedPkIfaceDown:sum(packetBytes) 	0
attr interpolationmode  none
attr source  dropPkIfaceDown
attr title  "packets dropped/interface down, sum(packetBytes)"
scalar Topo.s2.eth[0].mac 	droppedPkBitError:count 	0
attr interpolationmode  none
attr source  dropPkBitError
attr title  "packets dropped/bit error, count"
scalar Topo.s2.eth[0].mac 	droppedPkBitError:sum(packetBytes) 	0
attr interpolationmode  none
attr source  dropPkBitError
attr title  "packets dropped/bit error, sum(packetBytes)"
scalar Topo.s2.eth[0].mac 	rxPkFromHL:count 	36
attr interpolationmode  none
attr source  rxPkFromHL
attr title  "packet bytes from higher layer, count"
scalar Topo.s2.eth[0].mac 	rxPkFromHL:sum(packetBytes) 	2304
attr interpolationmode  none
attr source  rxPkFromHL
attr title  "packet bytes from higher layer, sum(packetBytes)"
scalar Topo.s2.eth[0].mac 	rxPausePkUnits:count 	0
attr interpolationmode  none
attr title  "pause units received, count"
scalar Topo.s2.eth[0].mac 	rxPausePkUnits:sum 	0
attr interpolationmode  none
attr title  "pause units received, sum"
scalar Topo.s2.eth[0].mac 	txPausePkUnits:count 	0
attr interpolationmode  none
attr title  "pause units sent, count"
scalar Topo.s2.eth[0].mac 	txPausePkUnits:sum 	0
attr interpolationmode  none
attr title  "pause units sent, sum"
scalar Topo.s2.eth[0].mac 	rxPkOk:count 	35
attr interpolationmode  none
attr source  rxPkOk
attr title  "packets received OK, count"
scalar Topo.s2.eth[0].mac 	rxPkOk:sum(packetBytes) 	2240
attr interpolationmode  none
attr source  rxPkOk
attr title  "packets received OK, sum(packetBytes)"
scalar Topo.s2.eth[0].mac 	txPk:count 	36
attr interpolationmode  none
attr source  txPk
attr title  "packets transmitted, count"
scalar Topo.s2.eth[0].mac 	txPk:sum(packetBytes) 	2304
attr interpolationmode  none
attr source  txPk
attr title  "packets transmitted, sum(packetBytes)"
scalar Topo.s2.eth[0].mac 	passedUpPk:count 	35
attr interpolationmode  none
attr source  packetSentToUpper
attr title  "packets passed to higher layer, count"
scalar Topo.s2.eth[0].mac 	passedUpPk:sum(packetBytes) 	2240
attr interpolationmode  none
attr source  packetSentToUpper
attr title  "packets passed to higher layer, sum(packetBytes)"
scalar Topo.s2.eth[0].encap 	pauseSent:count 	0
attr title  "pause sent, count"
scalar Topo.s2.eth[0].encap 	pauseSent:sum 	0
attr title  "pause sent, sum"
scalar Topo.s2.eth[0].encap 	decapPk:count 	35
attr interpolationmode  none
attr source  decapPk
attr title  "packets decapsulated, count"
scalar Topo.s2.eth[0].encap 	decapPk:sum(packetBytes) 	1385
attr interpolationmode  none
attr source  decapPk
attr title  "packets decapsulated, sum(packetBytes)"
scalar Topo.s2.eth[0].encap 	encapPk:count 	36
attr interpolationmode  none
attr source  encapPk
attr title  "packets encapsulated, count"
scalar Topo.s2.eth[0].encap 	encapPk:sum(packetBytes) 	1427
attr interpolationmode  none
attr source  encapPk
attr title  "packets encapsulated, sum(packetBytes)"
scalar Topo.s2.etherMAC[0] 	"simulated time" 	303
scalar Topo.s2.etherMAC[0] 	full-duplex 	1
scalar Topo.s2.etherMAC[0] 	"frames/sec sent" 	0.67986798679868
scalar Topo.s2.etherMAC[0] 	"frames/sec rcvd" 	0.67326732673267
scalar Topo.s2.etherMAC[0] 	"bits/sec sent" 	348.09240924092
scalar Topo.s2.etherMAC[0] 	"bits/sec rcvd" 	344.71287128713
scalar Topo.s2.etherMAC[0] 	"rx channel idle (%)" 	99.999961219802
scalar Topo.s2.etherMAC[0] 	"rx channel utilization (%)" 	3.8780198019802e-05
scalar Topo.s2.etherMAC[0] 	"rx channel collision (%)" 	0
scalar Topo.s2.etherMAC[0] 	collisions 	0
scalar Topo.s2.etherMAC[0] 	backoffs 	0
scalar Topo.s2.etherMAC[0] 	droppedPkNotForUs:count 	0
attr interpolationmode  none
attr source  dropPkNotForUs
attr title  "packets dropped/not for us, count"
scalar Topo.s2.etherMAC[0] 	droppedPkNotForUs:sum(packetBytes) 	0
attr interpolationmode  none
attr source  dropPkNotForUs
attr title  "packets dropped/not for us, sum(packetBytes)"
scalar Topo.s2.etherMAC[0] 	droppedPkIfaceDown:count 	0
attr interpolationmode  none
attr source  dropPkIfaceDown
attr title  "packets dropped/interface down, count"
scalar Topo.s2.etherMAC[0] 	droppedPkIfaceDown:sum(packetBytes) 	0
attr interpolationmode  none
attr source  dropPkIfaceDown
attr title  "packets dropped/interface down, sum(packetBytes)"
scalar Topo.s2.etherMAC[0] 	droppedPkBitError:count 	0
attr interpolationmode  none
attr source  dropPkBitError
attr title  "packets dropped/bit error, count"
scalar Topo.s2.etherMAC[0] 	droppedPkBitError:sum(packetBytes) 	0
attr interpolationmode  none
attr source  dropPkBitError
attr title  "packets dropped/bit error, sum(packetBytes)"
scalar Topo.s2.etherMAC[0] 	rxPkFromHL:count 	206
attr interpolationmode  none
attr source  rxPkFromHL
attr title  "packet bytes from higher layer, count"
scalar Topo.s2.etherMAC[0] 	rxPkFromHL:sum(packetBytes) 	13184
attr interpolationmode  none
attr source  rxPkFromHL
attr title  "packet bytes from higher layer, sum(packetBytes)"
scalar Topo.s2.etherMAC[0] 	rxPausePkUnits:count 	0
attr interpolationmode  none
attr title  "pause units received, count"
scalar Topo.s2.etherMAC[0] 	rxPausePkUnits:sum 	0
attr interpolationmode  none
attr title  "pause units received, sum"
scalar Topo.s2.etherMAC[0] 	txPausePkUnits:count 	0
attr interpolationmode  none
attr title  "pause units sent, count"
scalar Topo.s2.etherMAC[0] 	txPausePkUnits:sum 	0
attr interpolationmode  none
attr title  "pause units sent, sum"
scalar Topo.s2.etherMAC[0] 	rxPkOk:count 	204
attr interpolationmode  none
attr source  rxPkOk
attr title  "packets received OK, count"
scalar Topo.s2.etherMAC[0] 	rxPkOk:sum(packetBytes) 	13056
attr interpolationmode  none
attr source  rxPkOk
attr title  "packets received OK, sum(packetBytes)"
scalar Topo.s2.etherMAC[0] 	txPk:count 	206
attr interpolationmode  none
attr source  txPk
attr title  "packets transmitted, count"
scalar Topo.s2.etherMAC[0] 	txPk:sum(packetBytes) 	13184
attr interpolationmode  none
attr source  txPk
attr title  "packets transmitted, sum(packetBytes)"
scalar Topo.s2.etherMAC[0] 	backoff:count 	0
attr interpolationmode  none
attr title  "backoff, count"
scalar Topo.s2.etherMAC[0] 	collision:count 	0
attr interpolationmode  none
attr title  "collision, count"
scalar Topo.s2.etherMAC[0] 	passedUpPk:count 	204
attr interpolationmode  none
attr source  packetSentToUpper
attr title  "packets passed to higher layer, count"
scalar Topo.s2.etherMAC[0] 	passedUpPk:sum(packetBytes) 	13056
attr interpolationmode  none
attr source  packetSentToUpper
attr title  "packets passed to higher layer, sum(packetBytes)"
scalar Topo.s2.etherMAC[1] 	"simulated time" 	303
scalar Topo.s2.etherMAC[1] 	full-duplex 	1
scalar Topo.s2.etherMAC[1] 	"frames/sec sent" 	0
scalar Topo.s2.etherMAC[1] 	"frames/sec rcvd" 	0
scalar Topo.s2.etherMAC[1] 	"bits/sec sent" 	0
scalar Topo.s2.etherMAC[1] 	"bits/sec rcvd" 	0
scalar Topo.s2.etherMAC[1] 	"rx channel idle (%)" 	100
scalar Topo.s2.etherMAC[1] 	"rx channel utilization (%)" 	0
scalar Topo.s2.etherMAC[1] 	"rx channel collision (%)" 	0
scalar Topo.s2.etherMAC[1] 	collisions 	0
scalar Topo.s2.etherMAC[1] 	backoffs 	0
scalar Topo.s2.etherMAC[1] 	droppedPkNotForUs:count 	0
attr interpolationmode  none
attr source  dropPkNotForUs
attr title  "packets dropped/not for us, count"
scalar Topo.s2.etherMAC[1] 	droppedPkNotForUs:sum(packetBytes) 	0
attr interpolationmode  none
attr source  dropPkNotForUs
attr title  "packets dropped/not for us, sum(packetBytes)"
scalar Topo.s2.etherMAC[1] 	droppedPkIfaceDown:count 	0
attr interpolationmode  none
attr source  dropPkIfaceDown
attr title  "packets dropped/interface down, count"
scalar Topo.s2.etherMAC[1] 	droppedPkIfaceDown:sum(packetBytes) 	0
attr interpolationmode  none
attr source  dropPkIfaceDown
attr title  "packets dropped/interface down, sum(packetBytes)"
scalar Topo.s2.etherMAC[1] 	droppedPkBitError:count 	0
attr interpolationmode  none
attr source  dropPkBitError
attr title  "packets dropped/bit error, count"
scalar Topo.s2.etherMAC[1] 	droppedPkBitError:sum(packetBytes) 	0
attr interpolationmode  none
attr source  dropPkBitError
attr title  "packets dropped/bit error, sum(packetBytes)"
scalar Topo.s2.etherMAC[1] 	rxPkFromHL:count 	0
attr interpolationmode  none
attr source  rxPkFromHL
attr title  "packet bytes from higher layer, count"
scalar Topo.s2.etherMAC[1] 	rxPkFromHL:sum(packetBytes) 	0
attr interpolationmode  none
attr source  rxPkFromHL
attr title  "packet bytes from higher layer, sum(packetBytes)"
scalar Topo.s2.etherMAC[1] 	rxPausePkUnits:count 	0
attr interpolationmode  none
attr title  "pause units received, count"
scalar Topo.s2.etherMAC[1] 	rxPausePkUnits:sum 	0
attr interpolationmode  none
attr title  "pause units received, sum"
scalar Topo.s2.etherMAC[1] 	txPausePkUnits:count 	0
attr interpolationmode  none
attr title  "pause units sent, count"
scalar Topo.s2.etherMAC[1] 	txPausePkUnits:sum 	0
attr interpolationmode  none
attr title  "pause units sent, sum"
scalar Topo.s2.etherMAC[1] 	rxPkOk:count 	0
attr interpolationmode  none
attr source  rxPkOk
attr title  "packets received OK, count"
scalar Topo.s2.etherMAC[1] 	rxPkOk:sum(packetBytes) 	0
attr interpolationmode  none
attr source  rxPkOk
attr title  "packets received OK, sum(packetBytes)"
scalar Topo.s2.etherMAC[1] 	txPk:count 	0
attr interpolationmode  none
attr source  txPk
attr title  "packets transmitted, count"
scalar Topo.s2.etherMAC[1] 	txPk:sum(packetBytes) 	0
attr interpolationmode  none
attr source  txPk
attr title  "packets transmitted, sum(packetBytes)"
scalar Topo.s2.etherMAC[1] 	backoff:count 	0
attr interpolationmode  none
attr title  "backoff, count"
scalar Topo.s2.etherMAC[1] 	collision:count 	0
attr interpolationmode  none
attr title  "collision, count"
scalar Topo.s2.etherMAC[1] 	passedUpPk:count 	0
attr interpolationmode  none
attr source  packetSentToUpper
attr title  "packets passed to higher layer, count"
scalar Topo.s2.etherMAC[1] 	passedUpPk:sum(packetBytes) 	0
attr interpolationmode  none
attr source  packetSentToUpper
attr title  "packets passed to higher layer, sum(packetBytes)"
scalar Topo.s2.etherMAC[2] 	"simulated time" 	303
scalar Topo.s2.etherMAC[2] 	full-duplex 	1
scalar Topo.s2.etherMAC[2] 	"frames/sec sent" 	0.67326732673267
scalar Topo.s2.etherMAC[2] 	"frames/sec rcvd" 	0.67986798679868
scalar Topo.s2.etherMAC[2] 	"bits/sec sent" 	344.71287128713
scalar Topo.s2.etherMAC[2] 	"bits/sec rcvd" 	348.09240924092
scalar Topo.s2.etherMAC[2] 	"rx channel idle (%)" 	99.999960839604
scalar Topo.s2.etherMAC[2] 	"rx channel utilization (%)" 	3.9160396039604e-05
scalar Topo.s2.etherMAC[2] 	"rx channel collision (%)" 	0
scalar Topo.s2.etherMAC[2] 	collisions 	0
scalar Topo.s2.etherMAC[2] 	backoffs 	0
scalar Topo.s2.etherMAC[2] 	droppedPkNotForUs:count 	0
attr interpolationmode  none
attr source  dropPkNotForUs
attr title  "packets dropped/not for us, count"
scalar Topo.s2.etherMAC[2] 	droppedPkNotForUs:sum(packetBytes) 	0
attr interpolationmode  none
attr source  dropPkNotForUs
attr title  "packets dropped/not for us, sum(packetBytes)"
scalar Topo.s2.etherMAC[2] 	droppedPkIfaceDown:count 	0
attr interpolationmode  none
attr source  dropPkIfaceDown
attr title  "packets dropped/interface down, count"
scalar Topo.s2.etherMAC[2] 	droppedPkIfaceDown:sum(packetBytes) 	0
attr interpolationmode  none
attr source  dropPkIfaceDown
attr title  "packets dropped/interface down, sum(packetBytes)"
scalar Topo.s2.etherMAC[2] 	droppedPkBitError:count 	0
attr interpolationmode  none
attr source  dropPkBitError
attr title  "packets dropped/bit error, count"
scalar Topo.s2.etherMAC[2] 	droppedPkBitError:sum(packetBytes) 	0
attr interpolationmode  none
attr source  dropPkBitError
attr title  "packets dropped/bit error, sum(packetBytes)"
scalar Topo.s2.etherMAC[2] 	rxPkFromHL:count 	204
attr interpolationmode  none
attr source  rxPkFromHL
attr title  "packet bytes from higher layer, count"
scalar Topo.s2.etherMAC[2] 	rxPkFromHL:sum(packetBytes) 	13056
attr interpolationmode  none
attr source  rxPkFromHL
attr title  "packet bytes from higher layer, sum(packetBytes)"
scalar Topo.s2.etherMAC[2] 	rxPausePkUnits:count 	0
attr interpolationmode  none
attr title  "pause units received, count"
scalar Topo.s2.etherMAC[2] 	rxPausePkUnits:sum 	0
attr interpolationmode  none
attr title  "pause units received, sum"
scalar Topo.s2.etherMAC[2] 	txPausePkUnits:count 	0
attr interpolationmode  none
attr title  "pause units sent, count"
scalar Topo.s2.etherMAC[2] 	txPausePkUnits:sum 	0
attr interpolationmode  none
attr title  "pause units sent, sum"
scalar Topo.s2.etherMAC[2] 	rxPkOk:count 	206
attr interpolationmode  none
attr source  rxPkOk
attr title  "packets received OK, count"
scalar Topo.s2.etherMAC[2] 	rxPkOk:sum(packetBytes) 	13184
attr interpolationmode  none
attr source  rxPkOk
attr title  "packets received OK, sum(packetBytes)"
scalar Topo.s2.etherMAC[2] 	txPk:count 	204
attr interpolationmode  none
attr source  txPk
attr title  "packets transmitted, count"
scalar Topo.s2.etherMAC[2] 	txPk:sum(packetBytes) 	13056
attr interpolationmode  none
attr source  txPk
attr title  "packets transmitted, sum(packetBytes)"
scalar Topo.s2.etherMAC[2] 	backoff:count 	0
attr interpolationmode  none
attr title  "backoff, count"
scalar Topo.s2.etherMAC[2] 	collision:count 	0
attr interpolationmode  none
attr title  "collision, count"
scalar Topo.s2.etherMAC[2] 	passedUpPk:count 	206
attr interpolationmode  none
attr source  packetSentToUpper
attr title  "packets passed to higher layer, count"
scalar Topo.s2.etherMAC[2] 	passedUpPk:sum(packetBytes) 	13184
attr interpolationmode  none
attr source  packetSentToUpper
attr title  "packets passed to higher layer, sum(packetBytes)"
scalar Topo.s2.open_Flow_Processing 	droppedPkt:last 	-nan
attr source  droppedPkt
scalar Topo.s3.networkLayer.arp 	failedARPResolution:count 	0
attr title  "ARP failed resolutions, count"
scalar Topo.s3.networkLayer.arp 	completedARPResolution:count 	3
attr title  "ARP completed resolutions, count"
scalar Topo.s3.networkLayer.arp 	initiatedARPResolution:count 	3
attr title  "ARP initiated resolutions, count"
scalar Topo.s3.networkLayer.arp 	sentReply:count 	0
attr title  "ARP replies sent, count"
scalar Topo.s3.networkLayer.arp 	sentReq:count 	3
attr title  "ARP request sent, count"
scalar Topo.s3.eth[0].mac 	"simulated time" 	303
scalar Topo.s3.eth[0].mac 	full-duplex 	1
scalar Topo.s3.eth[0].mac 	"frames/sec sent" 	0.11881188118812
scalar Topo.s3.eth[0].mac 	"frames/sec rcvd" 	0.11551155115512
scalar Topo.s3.eth[0].mac 	"bits/sec sent" 	60.831683168317
scalar Topo.s3.eth[0].mac 	"bits/sec rcvd" 	59.141914191419
scalar Topo.s3.eth[0].mac 	"rx channel idle (%)" 	99.999993346535
scalar Topo.s3.eth[0].mac 	"rx channel utilization (%)" 	6.6534653465347e-06
scalar Topo.s3.eth[0].mac 	droppedPkNotForUs:count 	0
attr interpolationmode  none
attr source  dropPkNotForUs
attr title  "packets dropped/not for us, count"
scalar Topo.s3.eth[0].mac 	droppedPkNotForUs:sum(packetBytes) 	0
attr interpolationmode  none
attr source  dropPkNotForUs
attr title  "packets dropped/not for us, sum(packetBytes)"
scalar Topo.s3.eth[0].mac 	droppedPkIfaceDown:count 	0
attr interpolationmode  none
attr source  dropPkIfaceDown
attr title  "packets dropped/interface down, count"
scalar Topo.s3.eth[0].mac 	droppedPkIfaceDown:sum(packetBytes) 	0
attr interpolationmode  none
attr source  dropPkIfaceDown
attr title  "packets dropped/interface down, sum(packetBytes)"
scalar Topo.s3.eth[0].mac 	droppedPkBitError:count 	0
attr interpolationmode  none
attr source  dropPkBitError
attr title  "packets dropped/bit error, count"
scalar Topo.s3.eth[0].mac 	droppedPkBitError:sum(packetBytes) 	0
attr interpolationmode  none
attr source  dropPkBitError
attr title  "packets dropped/bit error, sum(packetBytes)"
scalar Topo.s3.eth[0].mac 	rxPkFromHL:count 	36
attr interpolationmode  none
attr source  rxPkFromHL
attr title  "packet bytes from higher layer, count"
scalar Topo.s3.eth[0].mac 	rxPkFromHL:sum(packetBytes) 	2304
attr interpolationmode  none
attr source  rxPkFromHL
attr title  "packet bytes from higher layer, sum(packetBytes)"
scalar Topo.s3.eth[0].mac 	rxPausePkUnits:count 	0
attr interpolationmode  none
attr title  "pause units received, count"
scalar Topo.s3.eth[0].mac 	rxPausePkUnits:sum 	0
attr interpolationmode  none
attr title  "pause units received, sum"
scalar Topo.s3.eth[0].mac 	txPausePkUnits:count 	0
attr interpolationmode  none
attr title  "pause units sent, count"
scalar Topo.s3.eth[0].mac 	txPausePkUnits:sum 	0
attr interpolationmode  none
attr title  "pause units sent, sum"
scalar Topo.s3.eth[0].mac 	rxPkOk:count 	35
attr interpolationmode  none
attr source  rxPkOk
attr title  "packets received OK, count"
scalar Topo.s3.eth[0].mac 	rxPkOk:sum(packetBytes) 	2240
attr interpolationmode  none
attr source  rxPkOk
attr title  "packets received OK, sum(packetBytes)"
scalar Topo.s3.eth[0].mac 	txPk:count 	36
attr interpolationmode  none
attr source  txPk
attr title  "packets transmitted, count"
scalar Topo.s3.eth[0].mac 	txPk:sum(packetBytes) 	2304
attr interpolationmode  none
attr source  txPk
attr title  "packets transmitted, sum(packetBytes)"
scalar Topo.s3.eth[0].mac 	passedUpPk:count 	35
attr interpolationmode  none
attr source  packetSentToUpper
attr title  "packets passed to higher layer, count"
scalar Topo.s3.eth[0].mac 	passedUpPk:sum(packetBytes) 	2240
attr interpolationmode  none
attr source  packetSentToUpper
attr title  "packets passed to higher layer, sum(packetBytes)"
scalar Topo.s3.eth[0].encap 	pauseSent:count 	0
attr title  "pause sent, count"
scalar Topo.s3.eth[0].encap 	pauseSent:sum 	0
attr title  "pause sent, sum"
scalar Topo.s3.eth[0].encap 	decapPk:count 	35
attr interpolationmode  none
attr source  decapPk
attr title  "packets decapsulated, count"
scalar Topo.s3.eth[0].encap 	decapPk:sum(packetBytes) 	1385
attr interpolationmode  none
attr source  decapPk
attr title  "packets decapsulated, sum(packetBytes)"
scalar Topo.s3.eth[0].encap 	encapPk:count 	36
attr interpolationmode  none
attr source  encapPk
attr title  "packets encapsulated, count"
scalar Topo.s3.eth[0].encap 	encapPk:sum(packetBytes) 	1427
attr interpolationmode  none
attr source  encapPk
attr title  "packets encapsulated, sum(packetBytes)"
scalar Topo.s3.etherMAC[0] 	"simulated time" 	303
scalar Topo.s3.etherMAC[0] 	full-duplex 	1
scalar Topo.s3.etherMAC[0] 	"frames/sec sent" 	0.67986798679868
scalar Topo.s3.etherMAC[0] 	"frames/sec rcvd" 	0.67326732673267
scalar Topo.s3.etherMAC[0] 	"bits/sec sent" 	348.09240924092
scalar Topo.s3.etherMAC[0] 	"bits/sec rcvd" 	344.71287128713
scalar Topo.s3.etherMAC[0] 	"rx channel idle (%)" 	99.999961219802
scalar Topo.s3.etherMAC[0] 	"rx channel utilization (%)" 	3.8780198019802e-05
scalar Topo.s3.etherMAC[0] 	"rx channel collision (%)" 	0
scalar Topo.s3.etherMAC[0] 	collisions 	0
scalar Topo.s3.etherMAC[0] 	backoffs 	0
scalar Topo.s3.etherMAC[0] 	droppedPkNotForUs:count 	0
attr interpolationmode  none
attr source  dropPkNotForUs
attr title  "packets dropped/not for us, count"
scalar Topo.s3.etherMAC[0] 	droppedPkNotForUs:sum(packetBytes) 	0
attr interpolationmode  none
attr source  dropPkNotForUs
attr title  "packets dropped/not for us, sum(packetBytes)"
scalar Topo.s3.etherMAC[0] 	droppedPkIfaceDown:count 	0
attr interpolationmode  none
attr source  dropPkIfaceDown
attr title  "packets dropped/interface down, count"
scalar Topo.s3.etherMAC[0] 	droppedPkIfaceDown:sum(packetBytes) 	0
attr interpolationmode  none
attr source  dropPkIfaceDown
attr title  "packets dropped/interface down, sum(packetBytes)"
scalar Topo.s3.etherMAC[0] 	droppedPkBitError:count 	0
attr interpolationmode  none
attr source  dropPkBitError
attr title  "packets dropped/bit error, count"
scalar Topo.s3.etherMAC[0] 	droppedPkBitError:sum(packetBytes) 	0
attr interpolationmode  none
attr source  dropPkBitError
attr title  "packets dropped/bit error, sum(packetBytes)"
scalar Topo.s3.etherMAC[0] 	rxPkFromHL:count 	206
attr interpolationmode  none
attr source  rxPkFromHL
attr title  "packet bytes from higher layer, count"
scalar Topo.s3.etherMAC[0] 	rxPkFromHL:sum(packetBytes) 	13184
attr interpolationmode  none
attr source  rxPkFromHL
attr title  "packet bytes from higher layer, sum(packetBytes)"
scalar Topo.s3.etherMAC[0] 	rxPausePkUnits:count 	0
attr interpolationmode  none
attr title  "pause units received, count"
scalar Topo.s3.etherMAC[0] 	rxPausePkUnits:sum 	0
attr interpolationmode  none
attr title  "pause units received, sum"
scalar Topo.s3.etherMAC[0] 	txPausePkUnits:count 	0
attr interpolationmode  none
attr title  "pause units sent, count"
scalar Topo.s3.etherMAC[0] 	txPausePkUnits:sum 	0
attr interpolationmode  none
attr title  "pause units sent, sum"
scalar Topo.s3.etherMAC[0] 	rxPkOk:count 	204
attr interpolationmode  none
attr source  rxPkOk
attr title  "packets received OK, count"
scalar Topo.s3.etherMAC[0] 	rxPkOk:sum(packetBytes) 	13056
attr interpolationmode  none
attr source  rxPkOk
attr title  "packets received OK, sum(packetBytes)"
scalar Topo.s3.etherMAC[0] 	txPk:count 	206
attr interpolationmode  none
attr source  txPk
attr title  "packets transmitted, count"
scalar Topo.s3.etherMAC[0] 	txPk:sum(packetBytes) 	13184
attr interpolationmode  none
attr source  txPk
attr title  "packets transmitted, sum(packetBytes)"
scalar Topo.s3.etherMAC[0] 	backoff:count 	0
attr interpolationmode  none
attr title  "backoff, count"
scalar Topo.s3.etherMAC[0] 	collision:count 	0
attr interpolationmode  none
attr title  "collision, count"
scalar Topo.s3.etherMAC[0] 	passedUpPk:count 	204
attr interpolationmode  none
attr source  packetSentToUpper
attr title  "packets passed to higher layer, count"
scalar Topo.s3.etherMAC[0] 	passedUpPk:sum(packetBytes) 	13056
attr interpolationmode  none
attr source  packetSentToUpper
attr title  "packets passed to higher layer, sum(packetBytes)"
scalar Topo.s3.etherMAC[1] 	"simulated time" 	303
scalar Topo.s3.etherMAC[1] 	full-duplex 	1
scalar Topo.s3.etherMAC[1] 	"frames/sec sent" 	0
scalar Topo.s3.etherMAC[1] 	"frames/sec rcvd" 	0
scalar Topo.s3.etherMAC[1] 	"bits/sec sent" 	0
scalar Topo.s3.etherMAC[1] 	"bits/sec rcvd" 	0
scalar Topo.s3.etherMAC[1] 	"rx channel idle (%)" 	100
scalar Topo.s3.etherMAC[1] 	"rx channel utilization (%)" 	0
scalar Topo.s3.etherMAC[1] 	"rx channel collision (%)" 	0
scalar Topo.s3.etherMAC[1] 	collisions 	0
scalar Topo.s3.etherMAC[1] 	backoffs 	0
scalar Topo.s3.etherMAC[1] 	droppedPkNotForUs:count 	0
attr interpolationmode  none
attr source  dropPkNotForUs
attr title  "packets dropped/not for us, count"
scalar Topo.s3.etherMAC[1] 	droppedPkNotForUs:sum(packetBytes) 	0
attr interpolationmode  none
attr source  dropPkNotForUs
attr title  "packets dropped/not for us, sum(packetBytes)"
scalar Topo.s3.etherMAC[1] 	droppedPkIfaceDown:count 	0
attr interpolationmode  none
attr source  dropPkIfaceDown
attr title  "packets dropped/interface down, count"
scalar Topo.s3.etherMAC[1] 	droppedPkIfaceDown:sum(packetBytes) 	0
attr interpolationmode  none
attr source  dropPkIfaceDown
attr title  "packets dropped/interface down, sum(packetBytes)"
scalar Topo.s3.etherMAC[1] 	droppedPkBitError:count 	0
attr interpolationmode  none
attr source  dropPkBitError
attr title  "packets dropped/bit error, count"
scalar Topo.s3.etherMAC[1] 	droppedPkBitError:sum(packetBytes) 	0
attr interpolationmode  none
attr source  dropPkBitError
attr title  "packets dropped/bit error, sum(packetBytes)"
scalar Topo.s3.etherMAC[1] 	rxPkFromHL:count 	0
attr interpolationmode  none
attr source  rxPkFromHL
attr title  "packet bytes from higher layer, count"
scalar Topo.s3.etherMAC[1] 	rxPkFromHL:sum(packetBytes) 	0
attr interpolationmode  none
attr source  rxPkFromHL
attr title  "packet bytes from higher layer, sum(packetBytes)"
scalar Topo.s3.etherMAC[1] 	rxPausePkUnits:count 	0
attr interpolationmode  none
attr title  "pause units received, count"
scalar Topo.s3.etherMAC[1] 	rxPausePkUnits:sum 	0
attr interpolationmode  none
attr title  "pause units received, sum"
scalar Topo.s3.etherMAC[1] 	txPausePkUnits:count 	0
attr interpolationmode  none
attr title  "pause units sent, count"
scalar Topo.s3.etherMAC[1] 	txPausePkUnits:sum 	0
attr interpolationmode  none
attr title  "pause units sent, sum"
scalar Topo.s3.etherMAC[1] 	rxPkOk:count 	0
attr interpolationmode  none
attr source  rxPkOk
attr title  "packets received OK, count"
scalar Topo.s3.etherMAC[1] 	rxPkOk:sum(packetBytes) 	0
attr interpolationmode  none
attr source  rxPkOk
attr title  "packets received OK, sum(packetBytes)"
scalar Topo.s3.etherMAC[1] 	txPk:count 	0
attr interpolationmode  none
attr source  txPk
attr title  "packets transmitted, count"
scalar Topo.s3.etherMAC[1] 	txPk:sum(packetBytes) 	0
attr interpolationmode  none
attr source  txPk
attr title  "packets transmitted, sum(packetBytes)"
scalar Topo.s3.etherMAC[1] 	backoff:count 	0
attr interpolationmode  none
attr title  "backoff, count"
scalar Topo.s3.etherMAC[1] 	collision:count 	0
attr interpolationmode  none
attr title  "collision, count"
scalar Topo.s3.etherMAC[1] 	passedUpPk:count 	0
attr interpolationmode  none
attr source  packetSentToUpper
attr title  "packets passed to higher layer, count"
scalar Topo.s3.etherMAC[1] 	passedUpPk:sum(packetBytes) 	0
attr interpolationmode  none
attr source  packetSentToUpper
attr title  "packets passed to higher layer, sum(packetBytes)"
scalar Topo.s3.etherMAC[2] 	"simulated time" 	303
scalar Topo.s3.etherMAC[2] 	full-duplex 	1
scalar Topo.s3.etherMAC[2] 	"frames/sec sent" 	0.67326732673267
scalar Topo.s3.etherMAC[2] 	"frames/sec rcvd" 	0.67986798679868
scalar Topo.s3.etherMAC[2] 	"bits/sec sent" 	344.71287128713
scalar Topo.s3.etherMAC[2] 	"bits/sec rcvd" 	348.09240924092
scalar Topo.s3.etherMAC[2] 	"rx channel idle (%)" 	99.999960839604
scalar Topo.s3.etherMAC[2] 	"rx channel utilization (%)" 	3.9160396039604e-05
scalar Topo.s3.etherMAC[2] 	"rx channel collision (%)" 	0
scalar Topo.s3.etherMAC[2] 	collisions 	0
scalar Topo.s3.etherMAC[2] 	backoffs 	0
scalar Topo.s3.etherMAC[2] 	droppedPkNotForUs:count 	0
attr interpolationmode  none
attr source  dropPkNotForUs
attr title  "packets dropped/not for us, count"
scalar Topo.s3.etherMAC[2] 	droppedPkNotForUs:sum(packetBytes) 	0
attr interpolationmode  none
attr source  dropPkNotForUs
attr title  "packets dropped/not for us, sum(packetBytes)"
scalar Topo.s3.etherMAC[2] 	droppedPkIfaceDown:count 	0
attr interpolationmode  none
attr source  dropPkIfaceDown
attr title  "packets dropped/interface down, count"
scalar Topo.s3.etherMAC[2] 	droppedPkIfaceDown:sum(packetBytes) 	0
attr interpolationmode  none
attr source  dropPkIfaceDown
attr title  "packets dropped/interface down, sum(packetBytes)"
scalar Topo.s3.etherMAC[2] 	droppedPkBitError:count 	0
attr interpolationmode  none
attr source  dropPkBitError
attr title  "packets dropped/bit error, count"
scalar Topo.s3.etherMAC[2] 	droppedPkBitError:sum(packetBytes) 	0
attr interpolationmode  none
attr source  dropPkBitError
attr title  "packets dropped/bit error, sum(packetBytes)"
scalar Topo.s3.etherMAC[2] 	rxPkFromHL:count 	204
attr interpolationmode  none
attr source  rxPkFromHL
attr title  "packet bytes from higher layer, count"
scalar Topo.s3.etherMAC[2] 	rxPkFromHL:sum(packetBytes) 	13056
attr interpolationmode  none
attr source  rxPkFromHL
attr title  "packet bytes from higher layer, sum(packetBytes)"
scalar Topo.s3.etherMAC[2] 	rxPausePkUnits:count 	0
attr interpolationmode  none
attr title  "pause units received, count"
scalar Topo.s3.etherMAC[2] 	rxPausePkUnits:sum 	0
attr interpolationmode  none
attr title  "pause units received, sum"
scalar Topo.s3.etherMAC[2] 	txPausePkUnits:count 	0
attr interpolationmode  none
attr title  "pause units sent, count"
scalar Topo.s3.etherMAC[2] 	txPausePkUnits:sum 	0
attr interpolationmode  none
attr title  "pause units sent, sum"
scalar Topo.s3.etherMAC[2] 	rxPkOk:count 	206
attr interpolationmode  none
attr source  rxPkOk
attr title  "packets received OK, count"
scalar Topo.s3.etherMAC[2] 	rxPkOk:sum(packetBytes) 	13184
attr interpolationmode  none
attr source  rxPkOk
attr title  "packets received OK, sum(packetBytes)"
scalar Topo.s3.etherMAC[2] 	txPk:count 	204
attr interpolationmode  none
attr source  txPk
attr title  "packets transmitted, count"
scalar Topo.s3.etherMAC[2] 	txPk:sum(packetBytes) 	13056
attr interpolationmode  none
attr source  txPk
attr title  "packets transmitted, sum(packetBytes)"
scalar Topo.s3.etherMAC[2] 	backoff:count 	0
attr interpolationmode  none
attr title  "backoff, count"
scalar Topo.s3.etherMAC[2] 	collision:count 	0
attr interpolationmode  none
attr title  "collision, count"
scalar Topo.s3.etherMAC[2] 	passedUpPk:count 	206
attr interpolationmode  none
attr source  packetSentToUpper
attr title  "packets passed to higher layer, count"
scalar Topo.s3.etherMAC[2] 	passedUpPk:sum(packetBytes) 	13184
attr interpolationmode  none
attr source  packetSentToUpper
attr title  "packets passed to higher layer, sum(packetBytes)"
scalar Topo.s3.open_Flow_Processing 	droppedPkt:last 	-nan
attr source  droppedPkt
scalar Topo.s4.networkLayer.arp 	failedARPResolution:count 	0
attr title  "ARP failed resolutions, count"
scalar Topo.s4.networkLayer.arp 	completedARPResolution:count 	3
attr title  "ARP completed resolutions, count"
scalar Topo.s4.networkLayer.arp 	initiatedARPResolution:count 	3
attr title  "ARP initiated resolutions, count"
scalar Topo.s4.networkLayer.arp 	sentReply:count 	0
attr title  "ARP replies sent, count"
scalar Topo.s4.networkLayer.arp 	sentReq:count 	3
attr title  "ARP request sent, count"
scalar Topo.s4.eth[0].mac 	"simulated time" 	303
scalar Topo.s4.eth[0].mac 	full-duplex 	1
scalar Topo.s4.eth[0].mac 	"frames/sec sent" 	0.11881188118812
scalar Topo.s4.eth[0].mac 	"frames/sec rcvd" 	0.11551155115512
scalar Topo.s4.eth[0].mac 	"bits/sec sent" 	60.831683168317
scalar Topo.s4.eth[0].mac 	"bits/sec rcvd" 	59.141914191419
scalar Topo.s4.eth[0].mac 	"rx channel idle (%)" 	99.999993346535
scalar Topo.s4.eth[0].mac 	"rx channel utilization (%)" 	6.6534653465347e-06
scalar Topo.s4.eth[0].mac 	droppedPkNotForUs:count 	0
attr interpolationmode  none
attr source  dropPkNotForUs
attr title  "packets dropped/not for us, count"
scalar Topo.s4.eth[0].mac 	droppedPkNotForUs:sum(packetBytes) 	0
attr interpolationmode  none
attr source  dropPkNotForUs
attr title  "packets dropped/not for us, sum(packetBytes)"
scalar Topo.s4.eth[0].mac 	droppedPkIfaceDown:count 	0
attr interpolationmode  none
attr source  dropPkIfaceDown
attr title  "packets dropped/interface down, count"
scalar Topo.s4.eth[0].mac 	droppedPkIfaceDown:sum(packetBytes) 	0
attr interpolationmode  none
attr source  dropPkIfaceDown
attr title  "packets dropped/interface down, sum(packetBytes)"
scalar Topo.s4.eth[0].mac 	droppedPkBitError:count 	0
attr interpolationmode  none
attr source  dropPkBitError
attr title  "packets dropped/bit error, count"
scalar Topo.s4.eth[0].mac 	droppedPkBitError:sum(packetBytes) 	0
attr interpolationmode  none
attr source  dropPkBitError
attr title  "packets dropped/bit error, sum(packetBytes)"
scalar Topo.s4.eth[0].mac 	rxPkFromHL:count 	36
attr interpolationmode  none
attr source  rxPkFromHL
attr title  "packet bytes from higher layer, count"
scalar Topo.s4.eth[0].mac 	rxPkFromHL:sum(packetBytes) 	2304
attr interpolationmode  none
attr source  rxPkFromHL
attr title  "packet bytes from higher layer, sum(packetBytes)"
scalar Topo.s4.eth[0].mac 	rxPausePkUnits:count 	0
attr interpolationmode  none
attr title  "pause units received, count"
scalar Topo.s4.eth[0].mac 	rxPausePkUnits:sum 	0
attr interpolationmode  none
attr title  "pause units received, sum"
scalar Topo.s4.eth[0].mac 	txPausePkUnits:count 	0
attr interpolationmode  none
attr title  "pause units sent, count"
scalar Topo.s4.eth[0].mac 	txPausePkUnits:sum 	0
attr interpolationmode  none
attr title  "pause units sent, sum"
scalar Topo.s4.eth[0].mac 	rxPkOk:count 	35
attr interpolationmode  none
attr source  rxPkOk
attr title  "packets received OK, count"
scalar Topo.s4.eth[0].mac 	rxPkOk:sum(packetBytes) 	2240
attr interpolationmode  none
attr source  rxPkOk
attr title  "packets received OK, sum(packetBytes)"
scalar Topo.s4.eth[0].mac 	txPk:count 	36
attr interpolationmode  none
attr source  txPk
attr title  "packets transmitted, count"
scalar Topo.s4.eth[0].mac 	txPk:sum(packetBytes) 	2304
attr interpolationmode  none
attr source  txPk
attr title  "packets transmitted, sum(packetBytes)"
scalar Topo.s4.eth[0].mac 	passedUpPk:count 	35
attr interpolationmode  none
attr source  packetSentToUpper
attr title  "packets passed to higher layer, count"
scalar Topo.s4.eth[0].mac 	passedUpPk:sum(packetBytes) 	2240
attr interpolationmode  none
attr source  packetSentToUpper
attr title  "packets passed to higher layer, sum(packetBytes)"
scalar Topo.s4.eth[0].encap 	pauseSent:count 	0
attr title  "pause sent, count"
scalar Topo.s4.eth[0].encap 	pauseSent:sum 	0
attr title  "pause sent, sum"
scalar Topo.s4.eth[0].encap 	decapPk:count 	35
attr interpolationmode  none
attr source  decapPk
attr title  "packets decapsulated, count"
scalar Topo.s4.eth[0].encap 	decapPk:sum(packetBytes) 	1385
attr interpolationmode  none
attr source  decapPk
attr title  "packets decapsulated, sum(packetBytes)"
scalar Topo.s4.eth[0].encap 	encapPk:count 	36
attr interpolationmode  none
attr source  encapPk
attr title  "packets encapsulated, count"
scalar Topo.s4.eth[0].encap 	encapPk:sum(packetBytes) 	1427
attr interpolationmode  none
attr source  encapPk
attr title  "packets encapsulated, sum(packetBytes)"
scalar Topo.s4.etherMAC[0] 	"simulated time" 	303
scalar Topo.s4.etherMAC[0] 	full-duplex 	1
scalar Topo.s4.etherMAC[0] 	"frames/sec sent" 	0.67986798679868
scalar Topo.s4.etherMAC[0] 	"frames/sec rcvd" 	0.67326732673267
scalar Topo.s4.etherMAC[0] 	"bits/sec sent" 	348.09240924092
scalar Topo.s4.etherMAC[0] 	"bits/sec rcvd" 	344.71287128713
scalar Topo.s4.etherMAC[0] 	"rx channel idle (%)" 	99.999961219802
scalar Topo.s4.etherMAC[0] 	"rx channel utilization (%)" 	3.8780198019802e-05
scalar Topo.s4.etherMAC[0] 	"rx channel collision (%)" 	0
scalar Topo.s4.etherMAC[0] 	collisions 	0
scalar Topo.s4.etherMAC[0] 	backoffs 	0
scalar Topo.s4.etherMAC[0] 	droppedPkNotForUs:count 	0
attr interpolationmode  none
attr source  dropPkNotForUs
attr title  "packets dropped/not for us, count"
scalar Topo.s4.etherMAC[0] 	droppedPkNotForUs:sum(packetBytes) 	0
attr interpolationmode  none
attr source  dropPkNotForUs
attr title  "packets dropped/not for us, sum(packetBytes)"
scalar Topo.s4.etherMAC[0] 	droppedPkIfaceDown:count 	0
attr interpolationmode  none
attr source  dropPkIfaceDown
attr title  "packets dropped/interface down, count"
scalar Topo.s4.etherMAC[0] 	droppedPkIfaceDown:sum(packetBytes) 	0
attr interpolationmode  none
attr source  dropPkIfaceDown
attr title  "packets dropped/interface down, sum(packetBytes)"
scalar Topo.s4.etherMAC[0] 	droppedPkBitError:count 	0
attr interpolationmode  none
attr source  dropPkBitError
attr title  "packets dropped/bit error, count"
scalar Topo.s4.etherMAC[0] 	droppedPkBitError:sum(packetBytes) 	0
attr interpolationmode  none
attr source  dropPkBitError
attr title  "packets dropped/bit error, sum(packetBytes)"
scalar Topo.s4.etherMAC[0] 	rxPkFromHL:count 	206
attr interpolationmode  none
attr source  rxPkFromHL
attr title  "packet bytes from higher layer, count"
scalar Topo.s4.etherMAC[0] 	rxPkFromHL:sum(packetBytes) 	13184
attr interpolationmode  none
attr source  rxPkFromHL
attr title  "packet bytes from higher layer, sum(packetBytes)"
scalar Topo.s4.etherMAC[0] 	rxPausePkUnits:count 	0
attr interpolationmode  none
attr title  "pause units received, count"
scalar Topo.s4.etherMAC[0] 	rxPausePkUnits:sum 	0
attr interpolationmode  none
attr title  "pause units received, sum"
scalar Topo.s4.etherMAC[0] 	txPausePkUnits:count 	0
attr interpolationmode  none
attr title  "pause units sent, count"
scalar Topo.s4.etherMAC[0] 	txPausePkUnits:sum 	0
attr interpolationmode  none
attr title  "pause units sent, sum"
scalar Topo.s4.etherMAC[0] 	rxPkOk:count 	204
attr interpolationmode  none
attr source  rxPkOk
attr title  "packets received OK, count"
scalar Topo.s4.etherMAC[0] 	rxPkOk:sum(packetBytes) 	13056
attr interpolationmode  none
attr source  rxPkOk
attr title  "packets received OK, sum(packetBytes)"
scalar Topo.s4.etherMAC[0] 	txPk:count 	206
attr interpolationmode  none
attr source  txPk
attr title  "packets transmitted, count"
scalar Topo.s4.etherMAC[0] 	txPk:sum(packetBytes) 	13184
attr interpolationmode  none
attr source  txPk
attr title  "packets transmitted, sum(packetBytes)"
scalar Topo.s4.etherMAC[0] 	backoff:count 	0
attr interpolationmode  none
attr title  "backoff, count"
scalar Topo.s4.etherMAC[0] 	collision:count 	0
attr interpolationmode  none
attr title  "collision, count"
scalar Topo.s4.etherMAC[0] 	passedUpPk:count 	204
attr interpolationmode  none
attr source  packetSentToUpper
attr title  "packets passed to higher layer, count"
scalar Topo.s4.etherMAC[0] 	passedUpPk:sum(packetBytes) 	13056
attr interpolationmode  none
attr source  packetSentToUpper
attr title  "packets passed to higher layer, sum(packetBytes)"
scalar Topo.s4.etherMAC[1] 	"simulated time" 	303
scalar Topo.s4.etherMAC[1] 	full-duplex 	1
scalar Topo.s4.etherMAC[1] 	"frames/sec sent" 	0.67326732673267
scalar Topo.s4.etherMAC[1] 	"frames/sec rcvd" 	0.67986798679868
scalar Topo.s4.etherMAC[1] 	"bits/sec sent" 	344.71287128713
scalar Topo.s4.etherMAC[1] 	"bits/sec rcvd" 	348.09240924092
scalar Topo.s4.etherMAC[1] 	"rx channel idle (%)" 	99.999960839604
scalar Topo.s4.etherMAC[1] 	"rx channel utilization (%)" 	3.9160396039604e-05
scalar Topo.s4.etherMAC[1] 	"rx channel collision (%)" 	0
scalar Topo.s4.etherMAC[1] 	collisions 	0
scalar Topo.s4.etherMAC[1] 	backoffs 	0
scalar Topo.s4.etherMAC[1] 	droppedPkNotForUs:count 	0
attr interpolationmode  none
attr source  dropPkNotForUs
attr title  "packets dropped/not for us, count"
scalar Topo.s4.etherMAC[1] 	droppedPkNotForUs:sum(packetBytes) 	0
attr interpolationmode  none
attr source  dropPkNotForUs
attr title  "packets dropped/not for us, sum(packetBytes)"
scalar Topo.s4.etherMAC[1] 	droppedPkIfaceDown:count 	0
attr interpolationmode  none
attr source  dropPkIfaceDown
attr title  "packets dropped/interface down, count"
scalar Topo.s4.etherMAC[1] 	droppedPkIfaceDown:sum(packetBytes) 	0
attr interpolationmode  none
attr source  dropPkIfaceDown
attr title  "packets dropped/interface down, sum(packetBytes)"
scalar Topo.s4.etherMAC[1] 	droppedPkBitError:count 	0
attr interpolationmode  none
attr source  dropPkBitError
attr title  "packets dropped/bit error, count"
scalar Topo.s4.etherMAC[1] 	droppedPkBitError:sum(packetBytes) 	0
attr interpolationmode  none
attr source  dropPkBitError
attr title  "packets dropped/bit error, sum(packetBytes)"
scalar Topo.s4.etherMAC[1] 	rxPkFromHL:count 	204
attr interpolationmode  none
attr source  rxPkFromHL
attr title  "packet bytes from higher layer, count"
scalar Topo.s4.etherMAC[1] 	rxPkFromHL:sum(packetBytes) 	13056
attr interpolationmode  none
attr source  rxPkFromHL
attr title  "packet bytes from higher layer, sum(packetBytes)"
scalar Topo.s4.etherMAC[1] 	rxPausePkUnits:count 	0
attr interpolationmode  none
attr title  "pause units received, count"
scalar Topo.s4.etherMAC[1] 	rxPausePkUnits:sum 	0
attr interpolationmode  none
attr title  "pause units received, sum"
scalar Topo.s4.etherMAC[1] 	txPausePkUnits:count 	0
attr interpolationmode  none
attr title  "pause units sent, count"
scalar Topo.s4.etherMAC[1] 	txPausePkUnits:sum 	0
attr interpolationmode  none
attr title  "pause units sent, sum"
scalar Topo.s4.etherMAC[1] 	rxPkOk:count 	206
attr interpolationmode  none
attr source  rxPkOk
attr title  "packets received OK, count"
scalar Topo.s4.etherMAC[1] 	rxPkOk:sum(packetBytes) 	13184
attr interpolationmode  none
attr source  rxPkOk
attr title  "packets received OK, sum(packetBytes)"
scalar Topo.s4.etherMAC[1] 	txPk:count 	204
attr interpolationmode  none
attr source  txPk
attr title  "packets transmitted, count"
scalar Topo.s4.etherMAC[1] 	txPk:sum(packetBytes) 	13056
attr interpolationmode  none
attr source  txPk
attr title  "packets transmitted, sum(packetBytes)"
scalar Topo.s4.etherMAC[1] 	backoff:count 	0
attr interpolationmode  none
attr title  "backoff, count"
scalar Topo.s4.etherMAC[1] 	collision:count 	0
attr interpolationmode  none
attr title  "collision, count"
scalar Topo.s4.etherMAC[1] 	passedUpPk:count 	206
attr interpolationmode  none
attr source  packetSentToUpper
attr title  "packets passed to higher layer, count"
scalar Topo.s4.etherMAC[1] 	passedUpPk:sum(packetBytes) 	13184
attr interpolationmode  none
attr source  packetSentToUpper
attr title  "packets passed to higher layer, sum(packetBytes)"
scalar Topo.s4.etherMAC[2] 	"simulated time" 	303
scalar Topo.s4.etherMAC[2] 	full-duplex 	1
scalar Topo.s4.etherMAC[2] 	"frames/sec sent" 	0
scalar Topo.s4.etherMAC[2] 	"frames/sec rcvd" 	0
scalar Topo.s4.etherMAC[2] 	"bits/sec sent" 	0
scalar Topo.s4.etherMAC[2] 	"bits/sec rcvd" 	0
scalar Topo.s4.etherMAC[2] 	"rx channel idle (%)" 	100
scalar Topo.s4.etherMAC[2] 	"rx channel utilization (%)" 	0
scalar Topo.s4.etherMAC[2] 	"rx channel collision (%)" 	0
scalar Topo.s4.etherMAC[2] 	collisions 	0
scalar Topo.s4.etherMAC[2] 	backoffs 	0
scalar Topo.s4.etherMAC[2] 	droppedPkNotForUs:count 	0
attr interpolationmode  none
attr source  dropPkNotForUs
attr title  "packets dropped/not for us, count"
scalar Topo.s4.etherMAC[2] 	droppedPkNotForUs:sum(packetBytes) 	0
attr interpolationmode  none
attr source  dropPkNotForUs
attr title  "packets dropped/not for us, sum(packetBytes)"
scalar Topo.s4.etherMAC[2] 	droppedPkIfaceDown:count 	0
attr interpolationmode  none
attr source  dropPkIfaceDown
attr title  "packets dropped/interface down, count"
scalar Topo.s4.etherMAC[2] 	droppedPkIfaceDown:sum(packetBytes) 	0
attr interpolationmode  none
attr source  dropPkIfaceDown
attr title  "packets dropped/interface down, sum(packetBytes)"
scalar Topo.s4.etherMAC[2] 	droppedPkBitError:count 	0
attr interpolationmode  none
attr source  dropPkBitError
attr title  "packets dropped/bit error, count"
scalar Topo.s4.etherMAC[2] 	droppedPkBitError:sum(packetBytes) 	0
attr interpolationmode  none
attr source  dropPkBitError
attr title  "packets dropped/bit error, sum(packetBytes)"
scalar Topo.s4.etherMAC[2] 	rxPkFromHL:count 	0
attr interpolationmode  none
attr source  rxPkFromHL
attr title  "packet bytes from higher layer, count"
scalar Topo.s4.etherMAC[2] 	rxPkFromHL:sum(packetBytes) 	0
attr interpolationmode  none
attr source  rxPkFromHL
attr title  "packet bytes from higher layer, sum(packetBytes)"
scalar Topo.s4.etherMAC[2] 	rxPausePkUnits:count 	0
attr interpolationmode  none
attr title  "pause units received, count"
scalar Topo.s4.etherMAC[2] 	rxPausePkUnits:sum 	0
attr interpolationmode  none
attr title  "pause units received, sum"
scalar Topo.s4.etherMAC[2] 	txPausePkUnits:count 	0
attr interpolationmode  none
attr title  "pause units sent, count"
scalar Topo.s4.etherMAC[2] 	txPausePkUnits:sum 	0
attr interpolationmode  none
attr title  "pause units sent, sum"
scalar Topo.s4.etherMAC[2] 	rxPkOk:count 	0
attr interpolationmode  none
attr source  rxPkOk
attr title  "packets received OK, count"
scalar Topo.s4.etherMAC[2] 	rxPkOk:sum(packetBytes) 	0
attr interpolationmode  none
attr source  rxPkOk
attr title  "packets received OK, sum(packetBytes)"
scalar Topo.s4.etherMAC[2] 	txPk:count 	0
attr interpolationmode  none
attr source  txPk
attr title  "packets transmitted, count"
scalar Topo.s4.etherMAC[2] 	txPk:sum(packetBytes) 	0
attr interpolationmode  none
attr source  txPk
attr title  "packets transmitted, sum(packetBytes)"
scalar Topo.s4.etherMAC[2] 	backoff:count 	0
attr interpolationmode  none
attr title  "backoff, count"
scalar Topo.s4.etherMAC[2] 	collision:count 	0
attr interpolationmode  none
attr title  "collision, count"
scalar Topo.s4.etherMAC[2] 	passedUpPk:count 	0
attr interpolationmode  none
attr source  packetSentToUpper
attr title  "packets passed to higher layer, count"
scalar Topo.s4.etherMAC[2] 	passedUpPk:sum(packetBytes) 	0
attr interpolationmode  none
attr source  packetSentToUpper
attr title  "packets passed to higher layer, sum(packetBytes)"
scalar Topo.s4.open_Flow_Processing 	droppedPkt:last 	-nan
attr source  droppedPkt
scalar Topo.s5.networkLayer.arp 	failedARPResolution:count 	0
attr title  "ARP failed resolutions, count"
scalar Topo.s5.networkLayer.arp 	completedARPResolution:count 	3
attr title  "ARP completed resolutions, count"
scalar Topo.s5.networkLayer.arp 	initiatedARPResolution:count 	3
attr title  "ARP initiated resolutions, count"
scalar Topo.s5.networkLayer.arp 	sentReply:count 	0
attr title  "ARP replies sent, count"
scalar Topo.s5.networkLayer.arp 	sentReq:count 	3
attr title  "ARP request sent, count"
scalar Topo.s5.eth[0].mac 	"simulated time" 	303
scalar Topo.s5.eth[0].mac 	full-duplex 	1
scalar Topo.s5.eth[0].mac 	"frames/sec sent" 	0.11881188118812
scalar Topo.s5.eth[0].mac 	"frames/sec rcvd" 	0.11551155115512
scalar Topo.s5.eth[0].mac 	"bits/sec sent" 	60.831683168317
scalar Topo.s5.eth[0].mac 	"bits/sec rcvd" 	59.141914191419
scalar Topo.s5.eth[0].mac 	"rx channel idle (%)" 	99.999993346535
scalar Topo.s5.eth[0].mac 	"rx channel utilization (%)" 	6.6534653465347e-06
scalar Topo.s5.eth[0].mac 	droppedPkNotForUs:count 	0
attr interpolationmode  none
attr source  dropPkNotForUs
attr title  "packets dropped/not for us, count"
scalar Topo.s5.eth[0].mac 	droppedPkNotForUs:sum(packetBytes) 	0
attr interpolationmode  none
attr source  dropPkNotForUs
attr title  "packets dropped/not for us, sum(packetBytes)"
scalar Topo.s5.eth[0].mac 	droppedPkIfaceDown:count 	0
attr interpolationmode  none
attr source  dropPkIfaceDown
attr title  "packets dropped/interface down, count"
scalar Topo.s5.eth[0].mac 	droppedPkIfaceDown:sum(packetBytes) 	0
attr interpolationmode  none
attr source  dropPkIfaceDown
attr title  "packets dropped/interface down, sum(packetBytes)"
scalar Topo.s5.eth[0].mac 	droppedPkBitError:count 	0
attr interpolationmode  none
attr source  dropPkBitError
attr title  "packets dropped/bit error, count"
scalar Topo.s5.eth[0].mac 	droppedPkBitError:sum(packetBytes) 	0
attr interpolationmode  none
attr source  dropPkBitError
attr title  "packets dropped/bit error, sum(packetBytes)"
scalar Topo.s5.eth[0].mac 	rxPkFromHL:count 	36
attr interpolationmode  none
attr source  rxPkFromHL
attr title  "packet bytes from higher layer, count"
scalar Topo.s5.eth[0].mac 	rxPkFromHL:sum(packetBytes) 	2304
attr interpolationmode  none
attr source  rxPkFromHL
attr title  "packet bytes from higher layer, sum(packetBytes)"
scalar Topo.s5.eth[0].mac 	rxPausePkUnits:count 	0
attr interpolationmode  none
attr title  "pause units received, count"
scalar Topo.s5.eth[0].mac 	rxPausePkUnits:sum 	0
attr interpolationmode  none
attr title  "pause units received, sum"
scalar Topo.s5.eth[0].mac 	txPausePkUnits:count 	0
attr interpolationmode  none
attr title  "pause units sent, count"
scalar Topo.s5.eth[0].mac 	txPausePkUnits:sum 	0
attr interpolationmode  none
attr title  "pause units sent, sum"
scalar Topo.s5.eth[0].mac 	rxPkOk:count 	35
attr interpolationmode  none
attr source  rxPkOk
attr title  "packets received OK, count"
scalar Topo.s5.eth[0].mac 	rxPkOk:sum(packetBytes) 	2240
attr interpolationmode  none
attr source  rxPkOk
attr title  "packets received OK, sum(packetBytes)"
scalar Topo.s5.eth[0].mac 	txPk:count 	36
attr interpolationmode  none
attr source  txPk
attr title  "packets transmitted, count"
scalar Topo.s5.eth[0].mac 	txPk:sum(packetBytes) 	2304
attr interpolationmode  none
attr source  txPk
attr title  "packets transmitted, sum(packetBytes)"
scalar Topo.s5.eth[0].mac 	passedUpPk:count 	35
attr interpolationmode  none
attr source  packetSentToUpper
attr title  "packets passed to higher layer, count"
scalar Topo.s5.eth[0].mac 	passedUpPk:sum(packetBytes) 	2240
attr interpolationmode  none
attr source  packetSentToUpper
attr title  "packets passed to higher layer, sum(packetBytes)"
scalar Topo.s5.eth[0].encap 	pauseSent:count 	0
attr title  "pause sent, count"
scalar Topo.s5.eth[0].encap 	pauseSent:sum 	0
attr title  "pause sent, sum"
scalar Topo.s5.eth[0].encap 	decapPk:count 	35
attr interpolationmode  none
attr source  decapPk
attr title  "packets decapsulated, count"
scalar Topo.s5.eth[0].encap 	decapPk:sum(packetBytes) 	1385
attr interpolationmode  none
attr source  decapPk
attr title  "packets decapsulated, sum(packetBytes)"
scalar Topo.s5.eth[0].encap 	encapPk:count 	36
attr interpolationmode  none
attr source  encapPk
attr title  "packets encapsulated, count"
scalar Topo.s5.eth[0].encap 	encapPk:sum(packetBytes) 	1427
attr interpolationmode  none
attr source  encapPk
attr title  "packets encapsulated, sum(packetBytes)"
scalar Topo.s5.etherMAC[0] 	"simulated time" 	303
scalar Topo.s5.etherMAC[0] 	full-duplex 	1
scalar Topo.s5.etherMAC[0] 	"frames/sec sent" 	0.67986798679868
scalar Topo.s5.etherMAC[0] 	"frames/sec rcvd" 	0.67326732673267
scalar Topo.s5.etherMAC[0] 	"bits/sec sent" 	348.09240924092
scalar Topo.s5.etherMAC[0] 	"bits/sec rcvd" 	344.71287128713
scalar Topo.s5.etherMAC[0] 	"rx channel idle (%)" 	99.999961219802
scalar Topo.s5.etherMAC[0] 	"rx channel utilization (%)" 	3.8780198019802e-05
scalar Topo.s5.etherMAC[0] 	"rx channel collision (%)" 	0
scalar Topo.s5.etherMAC[0] 	collisions 	0
scalar Topo.s5.etherMAC[0] 	backoffs 	0
scalar Topo.s5.etherMAC[0] 	droppedPkNotForUs:count 	0
attr interpolationmode  none
attr source  dropPkNotForUs
attr title  "packets dropped/not for us, count"
scalar Topo.s5.etherMAC[0] 	droppedPkNotForUs:sum(packetBytes) 	0
attr interpolationmode  none
attr source  dropPkNotForUs
attr title  "packets dropped/not for us, sum(packetBytes)"
scalar Topo.s5.etherMAC[0] 	droppedPkIfaceDown:count 	0
attr interpolationmode  none
attr source  dropPkIfaceDown
attr title  "packets dropped/interface down, count"
scalar Topo.s5.etherMAC[0] 	droppedPkIfaceDown:sum(packetBytes) 	0
attr interpolationmode  none
attr source  dropPkIfaceDown
attr title  "packets dropped/interface down, sum(packetBytes)"
scalar Topo.s5.etherMAC[0] 	droppedPkBitError:count 	0
attr interpolationmode  none
attr source  dropPkBitError
attr title  "packets dropped/bit error, count"
scalar Topo.s5.etherMAC[0] 	droppedPkBitError:sum(packetBytes) 	0
attr interpolationmode  none
attr source  dropPkBitError
attr title  "packets dropped/bit error, sum(packetBytes)"
scalar Topo.s5.etherMAC[0] 	rxPkFromHL:count 	206
attr interpolationmode  none
attr source  rxPkFromHL
attr title  "packet bytes from higher layer, count"
scalar Topo.s5.etherMAC[0] 	rxPkFromHL:sum(packetBytes) 	13184
attr interpolationmode  none
attr source  rxPkFromHL
attr title  "packet bytes from higher layer, sum(packetBytes)"
scalar Topo.s5.etherMAC[0] 	rxPausePkUnits:count 	0
attr interpolationmode  none
attr title  "pause units received, count"
scalar Topo.s5.etherMAC[0] 	rxPausePkUnits:sum 	0
attr interpolationmode  none
attr title  "pause units received, sum"
scalar Topo.s5.etherMAC[0] 	txPausePkUnits:count 	0
attr interpolationmode  none
attr title  "pause units sent, count"
scalar Topo.s5.etherMAC[0] 	txPausePkUnits:sum 	0
attr interpolationmode  none
attr title  "pause units sent, sum"
scalar Topo.s5.etherMAC[0] 	rxPkOk:count 	204
attr interpolationmode  none
attr source  rxPkOk
attr title  "packets received OK, count"
scalar Topo.s5.etherMAC[0] 	rxPkOk:sum(packetBytes) 	13056
attr interpolationmode  none
attr source  rxPkOk
attr title  "packets received OK, sum(packetBytes)"
scalar Topo.s5.etherMAC[0] 	txPk:count 	206
attr interpolationmode  none
attr source  txPk
attr title  "packets transmitted, count"
scalar Topo.s5.etherMAC[0] 	txPk:sum(packetBytes) 	13184
attr interpolationmode  none
attr source  txPk
attr title  "packets transmitted, sum(packetBytes)"
scalar Topo.s5.etherMAC[0] 	backoff:count 	0
attr interpolationmode  none
attr title  "backoff, count"
scalar Topo.s5.etherMAC[0] 	collision:count 	0
attr interpolationmode  none
attr title  "collision, count"
scalar Topo.s5.etherMAC[0] 	passedUpPk:count 	204
attr interpolationmode  none
attr source  packetSentToUpper
attr title  "packets passed to higher layer, count"
scalar Topo.s5.etherMAC[0] 	passedUpPk:sum(packetBytes) 	13056
attr interpolationmode  none
attr source  packetSentToUpper
attr title  "packets passed to higher layer, sum(packetBytes)"
scalar Topo.s5.etherMAC[1] 	"simulated time" 	303
scalar Topo.s5.etherMAC[1] 	full-duplex 	1
scalar Topo.s5.etherMAC[1] 	"frames/sec sent" 	0.67326732673267
scalar Topo.s5.etherMAC[1] 	"frames/sec rcvd" 	0.67986798679868
scalar Topo.s5.etherMAC[1] 	"bits/sec sent" 	344.71287128713
scalar Topo.s5.etherMAC[1] 	"bits/sec rcvd" 	348.09240924092
scalar Topo.s5.etherMAC[1] 	"rx channel idle (%)" 	99.999960839604
scalar Topo.s5.etherMAC[1] 	"rx channel utilization (%)" 	3.9160396039604e-05
scalar Topo.s5.etherMAC[1] 	"rx channel collision (%)" 	0
scalar Topo.s5.etherMAC[1] 	collisions 	0
scalar Topo.s5.etherMAC[1] 	backoffs 	0
scalar Topo.s5.etherMAC[1] 	droppedPkNotForUs:count 	0
attr interpolationmode  none
attr source  dropPkNotForUs
attr title  "packets dropped/not for us, count"
scalar Topo.s5.etherMAC[1] 	droppedPkNotForUs:sum(packetBytes) 	0
attr interpolationmode  none
attr source  dropPkNotForUs
attr title  "packets dropped/not for us, sum(packetBytes)"
scalar Topo.s5.etherMAC[1] 	droppedPkIfaceDown:count 	0
attr interpolationmode  none
attr source  dropPkIfaceDown
attr title  "packets dropped/interface down, count"
scalar Topo.s5.etherMAC[1] 	droppedPkIfaceDown:sum(packetBytes) 	0
attr interpolationmode  none
attr source  dropPkIfaceDown
attr title  "packets dropped/interface down, sum(packetBytes)"
scalar Topo.s5.etherMAC[1] 	droppedPkBitError:count 	0
attr interpolationmode  none
attr source  dropPkBitError
attr title  "packets dropped/bit error, count"
scalar Topo.s5.etherMAC[1] 	droppedPkBitError:sum(packetBytes) 	0
attr interpolationmode  none
attr source  dropPkBitError
attr title  "packets dropped/bit error, sum(packetBytes)"
scalar Topo.s5.etherMAC[1] 	rxPkFromHL:count 	204
attr interpolationmode  none
attr source  rxPkFromHL
attr title  "packet bytes from higher layer, count"
scalar Topo.s5.etherMAC[1] 	rxPkFromHL:sum(packetBytes) 	13056
attr interpolationmode  none
attr source  rxPkFromHL
attr title  "packet bytes from higher layer, sum(packetBytes)"
scalar Topo.s5.etherMAC[1] 	rxPausePkUnits:count 	0
attr interpolationmode  none
attr title  "pause units received, count"
scalar Topo.s5.etherMAC[1] 	rxPausePkUnits:sum 	0
attr interpolationmode  none
attr title  "pause units received, sum"
scalar Topo.s5.etherMAC[1] 	txPausePkUnits:count 	0
attr interpolationmode  none
attr title  "pause units sent, count"
scalar Topo.s5.etherMAC[1] 	txPausePkUnits:sum 	0
attr interpolationmode  none
attr title  "pause units sent, sum"
scalar Topo.s5.etherMAC[1] 	rxPkOk:count 	206
attr interpolationmode  none
attr source  rxPkOk
attr title  "packets received OK, count"
scalar Topo.s5.etherMAC[1] 	rxPkOk:sum(packetBytes) 	13184
attr interpolationmode  none
attr source  rxPkOk
attr title  "packets received OK, sum(packetBytes)"
scalar Topo.s5.etherMAC[1] 	txPk:count 	204
attr interpolationmode  none
attr source  txPk
attr title  "packets transmitted, count"
scalar Topo.s5.etherMAC[1] 	txPk:sum(packetBytes) 	13056
attr interpolationmode  none
attr source  txPk
attr title  "packets transmitted, sum(packetBytes)"
scalar Topo.s5.etherMAC[1] 	backoff:count 	0
attr interpolationmode  none
attr title  "backoff, count"
scalar Topo.s5.etherMAC[1] 	collision:count 	0
attr interpolationmode  none
attr title  "collision, count"
scalar Topo.s5.etherMAC[1] 	passedUpPk:count 	206
attr interpolationmode  none
attr source  packetSentToUpper
attr title  "packets passed to higher layer, count"
scalar Topo.s5.etherMAC[1] 	passedUpPk:sum(packetBytes) 	13184
attr interpolationmode  none
attr source  packetSentToUpper
attr title  "packets passed to higher layer, sum(packetBytes)"
scalar Topo.s5.etherMAC[2] 	"simulated time" 	303
scalar Topo.s5.etherMAC[2] 	full-duplex 	1
scalar Topo.s5.etherMAC[2] 	"frames/sec sent" 	0
scalar Topo.s5.etherMAC[2] 	"frames/sec rcvd" 	0
scalar Topo.s5.etherMAC[2] 	"bits/sec sent" 	0
scalar Topo.s5.etherMAC[2] 	"bits/sec rcvd" 	0
scalar Topo.s5.etherMAC[2] 	"rx channel idle (%)" 	100
scalar Topo.s5.etherMAC[2] 	"rx channel utilization (%)" 	0
scalar Topo.s5.etherMAC[2] 	"rx channel collision (%)" 	0
scalar Topo.s5.etherMAC[2] 	collisions 	0
scalar Topo.s5.etherMAC[2] 	backoffs 	0
scalar Topo.s5.etherMAC[2] 	droppedPkNotForUs:count 	0
attr interpolationmode  none
attr source  dropPkNotForUs
attr title  "packets dropped/not for us, count"
scalar Topo.s5.etherMAC[2] 	droppedPkNotForUs:sum(packetBytes) 	0
attr interpolationmode  none
attr source  dropPkNotForUs
attr title  "packets dropped/not for us, sum(packetBytes)"
scalar Topo.s5.etherMAC[2] 	droppedPkIfaceDown:count 	0
attr interpolationmode  none
attr source  dropPkIfaceDown
attr title  "packets dropped/interface down, count"
scalar Topo.s5.etherMAC[2] 	droppedPkIfaceDown:sum(packetBytes) 	0
attr interpolationmode  none
attr source  dropPkIfaceDown
attr title  "packets dropped/interface down, sum(packetBytes)"
scalar Topo.s5.etherMAC[2] 	droppedPkBitError:count 	0
attr interpolationmode  none
attr source  dropPkBitError
attr title  "packets dropped/bit error, count"
scalar Topo.s5.etherMAC[2] 	droppedPkBitError:sum(packetBytes) 	0
attr interpolationmode  none
attr source  dropPkBitError
attr title  "packets dropped/bit error, sum(packetBytes)"
scalar Topo.s5.etherMAC[2] 	rxPkFromHL:count 	0
attr interpolationmode  none
attr source  rxPkFromHL
attr title  "packet bytes from higher layer, count"
scalar Topo.s5.etherMAC[2] 	rxPkFromHL:sum(packetBytes) 	0
attr interpolationmode  none
attr source  rxPkFromHL
attr title  "packet bytes from higher layer, sum(packetBytes)"
scalar Topo.s5.etherMAC[2] 	rxPausePkUnits:count 	0
attr interpolationmode  none
attr title  "pause units received, count"
scalar Topo.s5.etherMAC[2] 	rxPausePkUnits:sum 	0
attr interpolationmode  none
attr title  "pause units received, sum"
scalar Topo.s5.etherMAC[2] 	txPausePkUnits:count 	0
attr interpolationmode  none
attr title  "pause units sent, count"
scalar Topo.s5.etherMAC[2] 	txPausePkUnits:sum 	0
attr interpolationmode  none
attr title  "pause units sent, sum"
scalar Topo.s5.etherMAC[2] 	rxPkOk:count 	0
attr interpolationmode  none
attr source  rxPkOk
attr title  "packets received OK, count"
scalar Topo.s5.etherMAC[2] 	rxPkOk:sum(packetBytes) 	0
attr interpolationmode  none
attr source  rxPkOk
attr title  "packets received OK, sum(packetBytes)"
scalar Topo.s5.etherMAC[2] 	txPk:count 	0
attr interpolationmode  none
attr source  txPk
attr title  "packets transmitted, count"
scalar Topo.s5.etherMAC[2] 	txPk:sum(packetBytes) 	0
attr interpolationmode  none
attr source  txPk
attr title  "packets transmitted, sum(packetBytes)"
scalar Topo.s5.etherMAC[2] 	backoff:count 	0
attr interpolationmode  none
attr title  "backoff, count"
scalar Topo.s5.etherMAC[2] 	collision:count 	0
attr interpolationmode  none
attr title  "collision, count"
scalar Topo.s5.etherMAC[2] 	passedUpPk:count 	0
attr interpolationmode  none
attr source  packetSentToUpper
attr title  "packets passed to higher layer, count"
scalar Topo.s5.etherMAC[2] 	passedUpPk:sum(packetBytes) 	0
attr interpolationmode  none
attr source  packetSentToUpper
attr title  "packets passed to higher layer, sum(packetBytes)"
scalar Topo.s5.open_Flow_Processing 	droppedPkt:last 	-nan
attr source  droppedPkt
scalar Topo.s6.networkLayer.arp 	failedARPResolution:count 	0
attr title  "ARP failed resolutions, count"
scalar Topo.s6.networkLayer.arp 	completedARPResolution:count 	3
attr title  "ARP completed resolutions, count"
scalar Topo.s6.networkLayer.arp 	initiatedARPResolution:count 	3
attr title  "ARP initiated resolutions, count"
scalar Topo.s6.networkLayer.arp 	sentReply:count 	0
attr title  "ARP replies sent, count"
scalar Topo.s6.networkLayer.arp 	sentReq:count 	3
attr title  "ARP request sent, count"
scalar Topo.s6.eth[0].mac 	"simulated time" 	303
scalar Topo.s6.eth[0].mac 	full-duplex 	1
scalar Topo.s6.eth[0].mac 	"frames/sec sent" 	0.16831683168317
scalar Topo.s6.eth[0].mac 	"frames/sec rcvd" 	0.16831683168317
scalar Topo.s6.eth[0].mac 	"bits/sec sent" 	101.91419141914
scalar Topo.s6.eth[0].mac 	"bits/sec rcvd" 	102.09900990099
scalar Topo.s6.eth[0].mac 	"rx channel idle (%)" 	99.999988712871
scalar Topo.s6.eth[0].mac 	"rx channel utilization (%)" 	1.1287128712871e-05
scalar Topo.s6.eth[0].mac 	droppedPkNotForUs:count 	0
attr interpolationmode  none
attr source  dropPkNotForUs
attr title  "packets dropped/not for us, count"
scalar Topo.s6.eth[0].mac 	droppedPkNotForUs:sum(packetBytes) 	0
attr interpolationmode  none
attr source  dropPkNotForUs
attr title  "packets dropped/not for us, sum(packetBytes)"
scalar Topo.s6.eth[0].mac 	droppedPkIfaceDown:count 	0
attr interpolationmode  none
attr source  dropPkIfaceDown
attr title  "packets dropped/interface down, count"
scalar Topo.s6.eth[0].mac 	droppedPkIfaceDown:sum(packetBytes) 	0
attr interpolationmode  none
attr source  dropPkIfaceDown
attr title  "packets dropped/interface down, sum(packetBytes)"
scalar Topo.s6.eth[0].mac 	droppedPkBitError:count 	0
attr interpolationmode  none
attr source  dropPkBitError
attr title  "packets dropped/bit error, count"
scalar Topo.s6.eth[0].mac 	droppedPkBitError:sum(packetBytes) 	0
attr interpolationmode  none
attr source  dropPkBitError
attr title  "packets dropped/bit error, sum(packetBytes)"
scalar Topo.s6.eth[0].mac 	rxPkFromHL:count 	51
attr interpolationmode  none
attr source  rxPkFromHL
attr title  "packet bytes from higher layer, count"
scalar Topo.s6.eth[0].mac 	rxPkFromHL:sum(packetBytes) 	3860
attr interpolationmode  none
attr source  rxPkFromHL
attr title  "packet bytes from higher layer, sum(packetBytes)"
scalar Topo.s6.eth[0].mac 	rxPausePkUnits:count 	0
attr interpolationmode  none
attr title  "pause units received, count"
scalar Topo.s6.eth[0].mac 	rxPausePkUnits:sum 	0
attr interpolationmode  none
attr title  "pause units received, sum"
scalar Topo.s6.eth[0].mac 	txPausePkUnits:count 	0
attr interpolationmode  none
attr title  "pause units sent, count"
scalar Topo.s6.eth[0].mac 	txPausePkUnits:sum 	0
attr interpolationmode  none
attr title  "pause units sent, sum"
scalar Topo.s6.eth[0].mac 	rxPkOk:count 	51
attr interpolationmode  none
attr source  rxPkOk
[...]
attr interpolationmode  none
attr source  packetSentToUpper
attr title  "packets passed to higher layer, sum(packetBytes)"
scalar Topo.RTU2.eth[0].mac 	"simulated time" 	303
scalar Topo.RTU2.eth[0].mac 	full-duplex 	1
scalar Topo.RTU2.eth[0].mac 	"frames/sec sent" 	0.34983498349835
scalar Topo.RTU2.eth[0].mac 	"frames/sec rcvd" 	0.34653465346535
scalar Topo.RTU2.eth[0].mac 	"bits/sec sent" 	179.11551155116
scalar Topo.RTU2.eth[0].mac 	"bits/sec rcvd" 	177.42574257426
scalar Topo.RTU2.eth[0].mac 	"rx channel idle (%)" 	99.999980039604
scalar Topo.RTU2.eth[0].mac 	"rx channel utilization (%)" 	1.9960396039604e-05
scalar Topo.RTU2.eth[0].mac 	droppedPkNotForUs:count 	0
attr interpolationmode  none
attr source  dropPkNotForUs
attr title  "packets dropped/not for us, count"
scalar Topo.RTU2.eth[0].mac 	droppedPkNotForUs:sum(packetBytes) 	0
attr interpolationmode  none
attr source  dropPkNotForUs
attr title  "packets dropped/not for us, sum(packetBytes)"
scalar Topo.RTU2.eth[0].mac 	droppedPkIfaceDown:count 	0
attr interpolationmode  none
attr source  dropPkIfaceDown
attr title  "packets dropped/interface down, count"
scalar Topo.RTU2.eth[0].mac 	droppedPkIfaceDown:sum(packetBytes) 	0
attr interpolationmode  none
attr source  dropPkIfaceDown
attr title  "packets dropped/interface down, sum(packetBytes)"
scalar Topo.RTU2.eth[0].mac 	droppedPkBitError:count 	0
attr interpolationmode  none
attr source  dropPkBitError
attr title  "packets dropped/bit error, count"
scalar Topo.RTU2.eth[0].mac 	droppedPkBitError:sum(packetBytes) 	0
attr interpolationmode  none
attr source  dropPkBitError
attr title  "packets dropped/bit error, sum(packetBytes)"
scalar Topo.RTU2.eth[0].mac 	rxPkFromHL:count 	106
attr interpolationmode  none
attr source  rxPkFromHL
attr title  "packet bytes from higher layer, count"
scalar Topo.RTU2.eth[0].mac 	rxPkFromHL:sum(packetBytes) 	6784
attr interpolationmode  none
attr source  rxPkFromHL
attr title  "packet bytes from higher layer, sum(packetBytes)"
scalar Topo.RTU2.eth[0].mac 	rxPausePkUnits:count 	0
attr interpolationmode  none
attr title  "pause units received, count"
scalar Topo.RTU2.eth[0].mac 	rxPausePkUnits:sum 	0
attr interpolationmode  none
attr title  "pause units received, sum"
scalar Topo.RTU2.eth[0].mac 	txPausePkUnits:count 	0
attr interpolationmode  none
attr title  "pause units sent, count"
scalar Topo.RTU2.eth[0].mac 	txPausePkUnits:sum 	0
attr interpolationmode  none
attr title  "pause units sent, sum"
scalar Topo.RTU2.eth[0].mac 	rxPkOk:count 	105
attr interpolationmode  none
attr source  rxPkOk
attr title  "packets received OK, count"
scalar Topo.RTU2.eth[0].mac 	rxPkOk:sum(packetBytes) 	6720
attr interpolationmode  none
attr source  rxPkOk
attr title  "packets received OK, sum(packetBytes)"
scalar Topo.RTU2.eth[0].mac 	txPk:count 	106
attr interpolationmode  none
attr source  txPk
attr title  "packets transmitted, count"
scalar Topo.RTU2.eth[0].mac 	txPk:sum(packetBytes) 	6784
attr interpolationmode  none
attr source  txPk
attr title  "packets transmitted, sum(packetBytes)"
scalar Topo.RTU2.eth[0].mac 	passedUpPk:count 	105
attr interpolationmode  none
attr source  packetSentToUpper
attr title  "packets passed to higher layer, count"
scalar Topo.RTU2.eth[0].mac 	passedUpPk:sum(packetBytes) 	6720
attr interpolationmode  none
attr source  packetSentToUpper
attr title  "packets passed to higher layer, sum(packetBytes)"
scalar Topo.RTU2.eth[0].encap 	pauseSent:count 	0
attr title  "pause sent, count"
scalar Topo.RTU2.eth[0].encap 	pauseSent:sum 	0
attr title  "pause sent, sum"
scalar Topo.RTU2.eth[0].encap 	decapPk:count 	105
attr interpolationmode  none
attr source  decapPk
attr title  "packets decapsulated, count"
scalar Topo.RTU2.eth[0].encap 	decapPk:sum(packetBytes) 	4169
attr interpolationmode  none
attr source  decapPk
attr title  "packets decapsulated, sum(packetBytes)"
scalar Topo.RTU2.eth[0].encap 	encapPk:count 	106
attr interpolationmode  none
attr source  encapPk
attr title  "packets encapsulated, count"
scalar Topo.RTU2.eth[0].encap 	encapPk:sum(packetBytes) 	4308
attr interpolationmode  none
attr source  encapPk
attr title  "packets encapsulated, sum(packetBytes)"
scalar Topo.RTU2.rtu 	rcvdPk:count 	1
attr interpolationmode  none
attr source  rcvdPk
attr title  "packets received, count"
scalar Topo.RTU2.rtu 	rcvdPk:sum(packetBytes) 	1
attr interpolationmode  none
attr source  rcvdPk
attr title  "packets received, sum(packetBytes)"
statistic Topo.RTU2.rtu 	endToEndDelay:histogram
field count 1
field mean 7.88e-06
field stddev -nan
field sum 7.88e-06
field sqrsum 6.20944e-11
field min 7.88e-06
field max 7.88e-06
attr interpolationmode  none
attr source  messageAge(rcvdPk)
attr title  "end-to-end delay, histogram"
attr unit  s
bin	-INF	0
bin	-0.49999212	0
bin	-0.46665878666667	0
bin	-0.43332545333333	0
bin	-0.39999212	0
bin	-0.36665878666667	0
bin	-0.33332545333333	0
bin	-0.29999212	0
bin	-0.26665878666667	0
bin	-0.23332545333333	0
bin	-0.19999212	0
bin	-0.16665878666667	0
bin	-0.13332545333333	0
bin	-0.09999212	0
bin	-0.066658786666667	0
bin	-0.033325453333333	0
bin	7.8800000000157e-06	1
bin	0.033341213333333	0
bin	0.066674546666667	0
bin	0.10000788	0
bin	0.13334121333333	0
bin	0.16667454666667	0
bin	0.20000788	0
bin	0.23334121333333	0
bin	0.26667454666667	0
bin	0.30000788	0
bin	0.33334121333333	0
bin	0.36667454666667	0
bin	0.40000788	0
bin	0.43334121333333	0
bin	0.46667454666667	0
bin	0.50000788	0
scalar Topo.RTU2.rtu 	sentPk:count 	100
attr interpolationmode  none
attr source  sentPk
attr title  "packets sent, count"
scalar Topo.RTU2.rtu 	sentPk:sum(packetBytes) 	100
attr interpolationmode  none
attr source  sentPk
attr title  "packets sent, sum(packetBytes)"
scalar Topo.RTU3.networkLayer.arp 	failedARPResolution:count 	0
attr title  "ARP failed resolutions, count"
scalar Topo.RTU3.networkLayer.arp 	completedARPResolution:count 	3
attr title  "ARP completed resolutions, count"
scalar Topo.RTU3.networkLayer.arp 	initiatedARPResolution:count 	3
attr title  "ARP initiated resolutions, count"
scalar Topo.RTU3.networkLayer.arp 	sentReply:count 	0
attr title  "ARP replies sent, count"
scalar Topo.RTU3.networkLayer.arp 	sentReq:count 	3
attr title  "ARP request sent, count"
scalar Topo.RTU3.lo0.lo 	droppedPkBitError:count 	0
attr interpolationmode  none
attr source  dropPkBitError
attr title  "packets dropped/bit error, count"
scalar Topo.RTU3.lo0.lo 	droppedPkBitError:sum(packetBytes) 	0
attr interpolationmode  none
attr source  dropPkBitError
attr title  "packets dropped/bit error, sum(packetBytes)"
scalar Topo.RTU3.lo0.lo 	rcvdPkFromHL:count 	0
attr interpolationmode  none
attr source  packetReceivedFromUpper
attr title  "packets received from higher layer, count"
scalar Topo.RTU3.lo0.lo 	rcvdPkFromHL:sum(packetBytes) 	0
attr interpolationmode  none
attr source  packetReceivedFromUpper
attr title  "packets received from higher layer, sum(packetBytes)"
scalar Topo.RTU3.lo0.lo 	passedUpPk:count 	0
attr interpolationmode  none
attr source  packetSentToUpper
attr title  "packets passed to higher layer, count"
scalar Topo.RTU3.lo0.lo 	passedUpPk:sum(packetBytes) 	0
attr interpolationmode  none
attr source  packetSentToUpper
attr title  "packets passed to higher layer, sum(packetBytes)"
scalar Topo.RTU3.eth[0].mac 	"simulated time" 	303
scalar Topo.RTU3.eth[0].mac 	full-duplex 	1
scalar Topo.RTU3.eth[0].mac 	"frames/sec sent" 	0.34983498349835
scalar Topo.RTU3.eth[0].mac 	"frames/sec rcvd" 	0.34653465346535
scalar Topo.RTU3.eth[0].mac 	"bits/sec sent" 	179.11551155116
scalar Topo.RTU3.eth[0].mac 	"bits/sec rcvd" 	177.42574257426
scalar Topo.RTU3.eth[0].mac 	"rx channel idle (%)" 	99.999980039604
scalar Topo.RTU3.eth[0].mac 	"rx channel utilization (%)" 	1.9960396039604e-05
scalar Topo.RTU3.eth[0].mac 	droppedPkNotForUs:count 	0
attr interpolationmode  none
attr source  dropPkNotForUs
attr title  "packets dropped/not for us, count"
scalar Topo.RTU3.eth[0].mac 	droppedPkNotForUs:sum(packetBytes) 	0
attr interpolationmode  none
attr source  dropPkNotForUs
attr title  "packets dropped/not for us, sum(packetBytes)"
scalar Topo.RTU3.eth[0].mac 	droppedPkIfaceDown:count 	0
attr interpolationmode  none
attr source  dropPkIfaceDown
attr title  "packets dropped/interface down, count"
scalar Topo.RTU3.eth[0].mac 	droppedPkIfaceDown:sum(packetBytes) 	0
attr interpolationmode  none
attr source  dropPkIfaceDown
attr title  "packets dropped/interface down, sum(packetBytes)"
scalar Topo.RTU3.eth[0].mac 	droppedPkBitError:count 	0
attr interpolationmode  none
attr source  dropPkBitError
attr title  "packets dropped/bit error, count"
scalar Topo.RTU3.eth[0].mac 	droppedPkBitError:sum(packetBytes) 	0
attr interpolationmode  none
attr source  dropPkBitError
attr title  "packets dropped/bit error, sum(packetBytes)"
scalar Topo.RTU3.eth[0].mac 	rxPkFromHL:count 	106
attr interpolationmode  none
attr source  rxPkFromHL
attr title  "packet bytes from higher layer, count"
scalar Topo.RTU3.eth[0].mac 	rxPkFromHL:sum(packetBytes) 	6784
attr interpolationmode  none
attr source  rxPkFromHL
attr title  "packet bytes from higher layer, sum(packetBytes)"
scalar Topo.RTU3.eth[0].mac 	rxPausePkUnits:count 	0
attr interpolationmode  none
attr title  "pause units received, count"
scalar Topo.RTU3.eth[0].mac 	rxPausePkUnits:sum 	0
attr interpolationmode  none
attr title  "pause units received, sum"
scalar Topo.RTU3.eth[0].mac 	txPausePkUnits:count 	0
attr interpolationmode  none
attr title  "pause units sent, count"
scalar Topo.RTU3.eth[0].mac 	txPausePkUnits:sum 	0
attr interpolationmode  none
attr title  "pause units sent, sum"
scalar Topo.RTU3.eth[0].mac 	rxPkOk:count 	105
attr interpolationmode  none
attr source  rxPkOk
attr title  "packets received OK, count"
scalar Topo.RTU3.eth[0].mac 	rxPkOk:sum(packetBytes) 	6720
attr interpolationmode  none
attr source  rxPkOk
attr title  "packets received OK, sum(packetBytes)"
scalar Topo.RTU3.eth[0].mac 	txPk:count 	106
attr interpolationmode  none
attr source  txPk
attr title  "packets transmitted, count"
scalar Topo.RTU3.eth[0].mac 	txPk:sum(packetBytes) 	6784
attr interpolationmode  none
attr source  txPk
attr title  "packets transmitted, sum(packetBytes)"
scalar Topo.RTU3.eth[0].mac 	passedUpPk:count 	105
attr interpolationmode  none
attr source  packetSentToUpper
attr title  "packets passed to higher layer, count"
scalar Topo.RTU3.eth[0].mac 	passedUpPk:sum(packetBytes) 	6720
attr interpolationmode  none
attr source  packetSentToUpper
attr title  "packets passed to higher layer, sum(packetBytes)"
scalar Topo.RTU3.eth[0].encap 	pauseSent:count 	0
attr title  "pause sent, count"
scalar Topo.RTU3.eth[0].encap 	pauseSent:sum 	0
attr title  "pause sent, sum"
scalar Topo.RTU3.eth[0].encap 	decapPk:count 	105
attr interpolationmode  none
attr source  decapPk
attr title  "packets decapsulated, count"
scalar Topo.RTU3.eth[0].encap 	decapPk:sum(packetBytes) 	4169
attr interpolationmode  none
attr source  decapPk
attr title  "packets decapsulated, sum(packetBytes)"
scalar Topo.RTU3.eth[0].encap 	encapPk:count 	106
attr interpolationmode  none
attr source  encapPk
attr title  "packets encapsulated, count"
scalar Topo.RTU3.eth[0].encap 	encapPk:sum(packetBytes) 	4308
attr interpolationmode  none
attr source  encapPk
attr title  "packets encapsulated, sum(packetBytes)"
scalar Topo.RTU3.rtu 	rcvdPk:count 	1
attr interpolationmode  none
attr source  rcvdPk
attr title  "packets received, count"
scalar Topo.RTU3.rtu 	rcvdPk:sum(packetBytes) 	1
attr interpolationmode  none
attr source  rcvdPk
attr title  "packets received, sum(packetBytes)"
statistic Topo.RTU3.rtu 	endToEndDelay:histogram
field count 1
field mean 7.88e-06
field stddev -nan
field sum 7.88e-06
field sqrsum 6.20944e-11
field min 7.88e-06
field max 7.88e-06
attr interpolationmode  none
attr source  messageAge(rcvdPk)
attr title  "end-to-end delay, histogram"
attr unit  s
bin	-INF	0
bin	-0.49999212	0
bin	-0.46665878666667	0
bin	-0.43332545333333	0
bin	-0.39999212	0
bin	-0.36665878666667	0
bin	-0.33332545333333	0
bin	-0.29999212	0
bin	-0.26665878666667	0
bin	-0.23332545333333	0
bin	-0.19999212	0
bin	-0.16665878666667	0
bin	-0.13332545333333	0
bin	-0.09999212	0
bin	-0.066658786666667	0
bin	-0.033325453333333	0
bin	7.8800000000157e-06	1
bin	0.033341213333333	0
bin	0.066674546666667	0
bin	0.10000788	0
bin	0.13334121333333	0
bin	0.16667454666667	0
bin	0.20000788	0
bin	0.23334121333333	0
bin	0.26667454666667	0
bin	0.30000788	0
bin	0.33334121333333	0
bin	0.36667454666667	0
bin	0.40000788	0
bin	0.43334121333333	0
bin	0.46667454666667	0
bin	0.50000788	0
scalar Topo.RTU3.rtu 	sentPk:count 	100
attr interpolationmode  none
attr source  sentPk
attr title  "packets sent, count"
scalar Topo.RTU3.rtu 	sentPk:sum(packetBytes) 	100
attr interpolationmode  none
attr source  sentPk
attr title  "packets sent, sum(packetBytes)"
scalar Topo.RTU4.networkLayer.arp 	failedARPResolution:count 	0
attr title  "ARP failed resolutions, count"
scalar Topo.RTU4.networkLayer.arp 	completedARPResolution:count 	3
attr title  "ARP completed resolutions, count"
scalar Topo.RTU4.networkLayer.arp 	initiatedARPResolution:count 	3
attr title  "ARP initiated resolutions, count"
scalar Topo.RTU4.networkLayer.arp 	sentReply:count 	0
attr title  "ARP replies sent, count"
scalar Topo.RTU4.networkLayer.arp 	sentReq:count 	3
attr title  "ARP request sent, count"
scalar Topo.RTU4.lo0.lo 	droppedPkBitError:count 	0
attr interpolationmode  none
attr source  dropPkBitError
attr title  "packets dropped/bit error, count"
scalar Topo.RTU4.lo0.lo 	droppedPkBitError:sum(packetBytes) 	0
attr interpolationmode  none
attr source  dropPkBitError
attr title  "packets dropped/bit error, sum(packetBytes)"
scalar Topo.RTU4.lo0.lo 	rcvdPkFromHL:count 	0
attr interpolationmode  none
attr source  packetReceivedFromUpper
attr title  "packets received from higher layer, count"
scalar Topo.RTU4.lo0.lo 	rcvdPkFromHL:sum(packetBytes) 	0
attr interpolationmode  none
attr source  packetReceivedFromUpper
attr title  "packets received from higher layer, sum(packetBytes)"
scalar Topo.RTU4.lo0.lo 	passedUpPk:count 	0
attr interpolationmode  none
attr source  packetSentToUpper
attr title  "packets passed to higher layer, count"
scalar Topo.RTU4.lo0.lo 	passedUpPk:sum(packetBytes) 	0
attr interpolationmode  none
attr source  packetSentToUpper
attr title  "packets passed to higher layer, sum(packetBytes)"
scalar Topo.RTU4.eth[0].mac 	"simulated time" 	303
scalar Topo.RTU4.eth[0].mac 	full-duplex 	1
scalar Topo.RTU4.eth[0].mac 	"frames/sec sent" 	0.34983498349835
scalar Topo.RTU4.eth[0].mac 	"frames/sec rcvd" 	0.34653465346535
scalar Topo.RTU4.eth[0].mac 	"bits/sec sent" 	179.11551155116
scalar Topo.RTU4.eth[0].mac 	"bits/sec rcvd" 	177.42574257426
scalar Topo.RTU4.eth[0].mac 	"rx channel idle (%)" 	99.999980039604
scalar Topo.RTU4.eth[0].mac 	"rx channel utilization (%)" 	1.9960396039604e-05
scalar Topo.RTU4.eth[0].mac 	droppedPkNotForUs:count 	0
attr interpolationmode  none
attr source  dropPkNotForUs
attr title  "packets dropped/not for us, count"
scalar Topo.RTU4.eth[0].mac 	droppedPkNotForUs:sum(packetBytes) 	0
attr interpolationmode  none
attr source  dropPkNotForUs
attr title  "packets dropped/not for us, sum(packetBytes)"
scalar Topo.RTU4.eth[0].mac 	droppedPkIfaceDown:count 	0
attr interpolationmode  none
attr source  dropPkIfaceDown
attr title  "packets dropped/interface down, count"
scalar Topo.RTU4.eth[0].mac 	droppedPkIfaceDown:sum(packetBytes) 	0
attr interpolationmode  none
attr source  dropPkIfaceDown
attr title  "packets dropped/interface down, sum(packetBytes)"
scalar Topo.RTU4.eth[0].mac 	droppedPkBitError:count 	0
attr interpolationmode  none
attr source  dropPkBitError
attr title  "packets dropped/bit error, count"
scalar Topo.RTU4.eth[0].mac 	droppedPkBitError:sum(packetBytes) 	0
attr interpolationmode  none
attr source  dropPkBitError
attr title  "packets dropped/bit error, sum(packetBytes)"
scalar Topo.RTU4.eth[0].mac 	rxPkFromHL:count 	106
attr interpolationmode  none
attr source  rxPkFromHL
attr title  "packet bytes from higher layer, count"
scalar Topo.RTU4.eth[0].mac 	rxPkFromHL:sum(packetBytes) 	6784
attr interpolationmode  none
attr source  rxPkFromHL
attr title  "packet bytes from higher layer, sum(packetBytes)"
scalar Topo.RTU4.eth[0].mac 	rxPausePkUnits:count 	0
attr interpolationmode  none
attr title  "pause units received, count"
scalar Topo.RTU4.eth[0].mac 	rxPausePkUnits:sum 	0
attr interpolationmode  none
attr title  "pause units received, sum"
scalar Topo.RTU4.eth[0].mac 	txPausePkUnits:count 	0
attr interpolationmode  none
attr title  "pause units sent, count"
scalar Topo.RTU4.eth[0].mac 	txPausePkUnits:sum 	0
attr interpolationmode  none
attr title  "pause units sent, sum"
scalar Topo.RTU4.eth[0].mac 	rxPkOk:count 	105
attr interpolationmode  none
attr source  rxPkOk
attr title  "packets received OK, count"
scalar Topo.RTU4.eth[0].mac 	rxPkOk:sum(packetBytes) 	6720
attr interpolationmode  none
attr source  rxPkOk
attr title  "packets received OK, sum(packetBytes)"
scalar Topo.RTU4.eth[0].mac 	txPk:count 	106
attr interpolationmode  none
attr source  txPk
attr title  "packets transmitted, count"
scalar Topo.RTU4.eth[0].mac 	txPk:sum(packetBytes) 	6784
attr interpolationmode  none
attr source  txPk
attr title  "packets transmitted, sum(packetBytes)"
scalar Topo.RTU4.eth[0].mac 	passedUpPk:count 	105
attr interpolationmode  none
attr source  packetSentToUpper
attr title  "packets passed to higher layer, count"
scalar Topo.RTU4.eth[0].mac 	passedUpPk:sum(packetBytes) 	6720
attr interpolationmode  none
attr source  packetSentToUpper
attr title  "packets passed to higher layer, sum(packetBytes)"
scalar Topo.RTU4.eth[0].encap 	pauseSent:count 	0
attr title  "pause sent, count"
scalar Topo.RTU4.eth[0].encap 	pauseSent:sum 	0
attr title  "pause sent, sum"
scalar Topo.RTU4.eth[0].encap 	decapPk:count 	105
attr interpolationmode  none
attr source  decapPk
attr title  "packets decapsulated, count"
scalar Topo.RTU4.eth[0].encap 	decapPk:sum(packetBytes) 	4169
attr interpolationmode  none
attr source  decapPk
attr title  "packets decapsulated, sum(packetBytes)"
scalar Topo.RTU4.eth[0].encap 	encapPk:count 	106
attr interpolationmode  none
attr source  encapPk
attr title  "packets encapsulated, count"
scalar Topo.RTU4.eth[0].encap 	encapPk:sum(packetBytes) 	4308
attr interpolationmode  none
attr source  encapPk
attr title  "packets encapsulated, sum(packetBytes)"
scalar Topo.RTU4.rtu 	rcvdPk:count 	1
attr interpolationmode  none
attr source  rcvdPk
attr title  "packets received, count"
scalar Topo.RTU4.rtu 	rcvdPk:sum(packetBytes) 	1
attr interpolationmode  none
attr source  rcvdPk
attr title  "packets received, sum(packetBytes)"
statistic Topo.RTU4.rtu 	endToEndDelay:histogram
field count 1
field mean 7.88e-06
field stddev -nan
field sum 7.88e-06
field sqrsum 6.20944e-11
field min 7.88e-06
field max 7.88e-06
attr interpolationmode  none
attr source  messageAge(rcvdPk)
attr title  "end-to-end delay, histogram"
attr unit  s
bin	-INF	0
bin	-0.49999212	0
bin	-0.46665878666667	0
bin	-0.43332545333333	0
bin	-0.39999212	0
bin	-0.36665878666667	0
bin	-0.33332545333333	0
bin	-0.29999212	0
bin	-0.26665878666667	0
bin	-0.23332545333333	0
bin	-0.19999212	0
bin	-0.16665878666667	0
bin	-0.13332545333333	0
bin	-0.09999212	0
bin	-0.066658786666667	0
bin	-0.033325453333333	0
bin	7.8800000000157e-06	1
bin	0.033341213333333	0
bin	0.066674546666667	0
bin	0.10000788	0
bin	0.13334121333333	0
bin	0.16667454666667	0
bin	0.20000788	0
bin	0.23334121333333	0
bin	0.26667454666667	0
bin	0.30000788	0
bin	0.33334121333333	0
bin	0.36667454666667	0
bin	0.40000788	0
bin	0.43334121333333	0
bin	0.46667454666667	0
bin	0.50000788	0
scalar Topo.RTU4.rtu 	sentPk:count 	100
attr interpolationmode  none
attr source  sentPk
attr title  "packets sent, count"
scalar Topo.RTU4.rtu 	sentPk:sum(packetBytes) 	100
attr interpolationmode  none
attr source  sentPk
attr title  "packets sent, sum(packetBytes)"
