version 2
run hide_alert-0-20170201-16:27:07-15288
attr configname hide_alert
attr datetime 20170201-16:27:07
attr experiment hide_alert
attr inifile omnetpp.ini
attr iterationvars ""
attr iterationvars2 $repetition=0
attr measurement ""
attr network Topo
attr processid 15288
attr repetition 0
attr replication #0
attr resultdir results
attr runnumber 0
attr seedset 0

scalar Topo.s1.networkLayer.arp 	failedARPResolution:count 	0
attr title  "ARP failed resolutions, count"
scalar Topo.s1.networkLayer.arp 	completedARPResolution:count 	1
attr title  "ARP completed resolutions, count"
scalar Topo.s1.networkLayer.arp 	initiatedARPResolution:count 	1
attr title  "ARP initiated resolutions, count"
scalar Topo.s1.networkLayer.arp 	sentReply:count 	0
attr title  "ARP replies sent, count"
scalar Topo.s1.networkLayer.arp 	sentReq:count 	1
attr title  "ARP request sent, count"
scalar Topo.s1.eth[0].mac 	"simulated time" 	75.00000788
scalar Topo.s1.eth[0].mac 	full-duplex 	1
scalar Topo.s1.eth[0].mac 	"frames/sec sent" 	0.239999974784
scalar Topo.s1.eth[0].mac 	"frames/sec rcvd" 	0.22666664285156
scalar Topo.s1.eth[0].mac 	"bits/sec sent" 	175.14664826459
scalar Topo.s1.eth[0].mac 	"bits/sec rcvd" 	168.74664893702
scalar Topo.s1.eth[0].mac 	"rx channel idle (%)" 	99.999981674669
scalar Topo.s1.eth[0].mac 	"rx channel utilization (%)" 	1.8325331407952e-05
scalar Topo.s1.eth[0].mac 	droppedPkNotForUs:count 	0
attr interpolationmode  none
attr source  dropPkNotForUs
attr title  "packets dropped/not for us, count"
scalar Topo.s1.eth[0].mac 	droppedPkNotForUs:sum(packetBytes) 	0
attr interpolationmode  none
attr source  dropPkNotForUs
attr title  "packets dropped/not for us, sum(packetBytes)"
scalar Topo.s1.eth[0].mac 	droppedPkIfaceDown:count 	0
attr interpolationmode  none
attr source  dropPkIfaceDown
attr title  "packets dropped/interface down, count"
scalar Topo.s1.eth[0].mac 	droppedPkIfaceDown:sum(packetBytes) 	0
attr interpolationmode  none
attr source  dropPkIfaceDown
attr title  "packets dropped/interface down, sum(packetBytes)"
scalar Topo.s1.eth[0].mac 	droppedPkBitError:count 	0
attr interpolationmode  none
attr source  dropPkBitError
attr title  "packets dropped/bit error, count"
scalar Topo.s1.eth[0].mac 	droppedPkBitError:sum(packetBytes) 	0
attr interpolationmode  none
attr source  dropPkBitError
attr title  "packets dropped/bit error, sum(packetBytes)"
scalar Topo.s1.eth[0].mac 	rxPkFromHL:count 	18
attr interpolationmode  none
attr source  rxPkFromHL
attr title  "packet bytes from higher layer, count"
scalar Topo.s1.eth[0].mac 	rxPkFromHL:sum(packetBytes) 	1642
attr interpolationmode  none
attr source  rxPkFromHL
attr title  "packet bytes from higher layer, sum(packetBytes)"
scalar Topo.s1.eth[0].mac 	rxPausePkUnits:count 	0
attr interpolationmode  none
attr title  "pause units received, count"
scalar Topo.s1.eth[0].mac 	rxPausePkUnits:sum 	0
attr interpolationmode  none
attr title  "pause units received, sum"
scalar Topo.s1.eth[0].mac 	txPausePkUnits:count 	0
attr interpolationmode  none
attr title  "pause units sent, count"
scalar Topo.s1.eth[0].mac 	txPausePkUnits:sum 	0
attr interpolationmode  none
attr title  "pause units sent, sum"
scalar Topo.s1.eth[0].mac 	rxPkOk:count 	17
attr interpolationmode  none
attr source  rxPkOk
attr title  "packets received OK, count"
scalar Topo.s1.eth[0].mac 	rxPkOk:sum(packetBytes) 	1582
attr interpolationmode  none
attr source  rxPkOk
attr title  "packets received OK, sum(packetBytes)"
scalar Topo.s1.eth[0].mac 	txPk:count 	18
attr interpolationmode  none
attr source  txPk
attr title  "packets transmitted, count"
scalar Topo.s1.eth[0].mac 	txPk:sum(packetBytes) 	1642
attr interpolationmode  none
attr source  txPk
attr title  "packets transmitted, sum(packetBytes)"
scalar Topo.s1.eth[0].mac 	passedUpPk:count 	17
attr interpolationmode  none
attr source  packetSentToUpper
attr title  "packets passed to higher layer, count"
scalar Topo.s1.eth[0].mac 	passedUpPk:sum(packetBytes) 	1582
attr interpolationmode  none
attr source  packetSentToUpper
attr title  "packets passed to higher layer, sum(packetBytes)"
scalar Topo.s1.eth[0].encap 	pauseSent:count 	0
attr title  "pause sent, count"
scalar Topo.s1.eth[0].encap 	pauseSent:sum 	0
attr title  "pause sent, sum"
scalar Topo.s1.eth[0].encap 	decapPk:count 	17
attr interpolationmode  none
attr source  decapPk
attr title  "packets decapsulated, count"
scalar Topo.s1.eth[0].encap 	decapPk:sum(packetBytes) 	1201
attr interpolationmode  none
attr source  decapPk
attr title  "packets decapsulated, sum(packetBytes)"
scalar Topo.s1.eth[0].encap 	encapPk:count 	18
attr interpolationmode  none
attr source  encapPk
attr title  "packets encapsulated, count"
scalar Topo.s1.eth[0].encap 	encapPk:sum(packetBytes) 	1233
attr interpolationmode  none
attr source  encapPk
attr title  "packets encapsulated, sum(packetBytes)"
scalar Topo.s1.etherMAC[0] 	"simulated time" 	75.00000788
scalar Topo.s1.etherMAC[0] 	full-duplex 	1
scalar Topo.s1.etherMAC[0] 	"frames/sec sent" 	1.5199998402987
scalar Topo.s1.etherMAC[0] 	"frames/sec rcvd" 	1.439999848704
scalar Topo.s1.etherMAC[0] 	"bits/sec sent" 	778.23991823293
scalar Topo.s1.etherMAC[0] 	"bits/sec rcvd" 	737.27992253646
scalar Topo.s1.etherMAC[0] 	"rx channel idle (%)" 	99.999917056009
scalar Topo.s1.etherMAC[0] 	"rx channel utilization (%)" 	8.2943991285351e-05
scalar Topo.s1.etherMAC[0] 	"rx channel collision (%)" 	0
scalar Topo.s1.etherMAC[0] 	collisions 	0
scalar Topo.s1.etherMAC[0] 	backoffs 	0
scalar Topo.s1.etherMAC[0] 	droppedPkNotForUs:count 	0
attr interpolationmode  none
attr source  dropPkNotForUs
attr title  "packets dropped/not for us, count"
scalar Topo.s1.etherMAC[0] 	droppedPkNotForUs:sum(packetBytes) 	0
attr interpolationmode  none
attr source  dropPkNotForUs
attr title  "packets dropped/not for us, sum(packetBytes)"
scalar Topo.s1.etherMAC[0] 	droppedPkIfaceDown:count 	0
attr interpolationmode  none
attr source  dropPkIfaceDown
attr title  "packets dropped/interface down, count"
scalar Topo.s1.etherMAC[0] 	droppedPkIfaceDown:sum(packetBytes) 	0
attr interpolationmode  none
attr source  dropPkIfaceDown
attr title  "packets dropped/interface down, sum(packetBytes)"
scalar Topo.s1.etherMAC[0] 	droppedPkBitError:count 	0
attr interpolationmode  none
attr source  dropPkBitError
attr title  "packets dropped/bit error, count"
scalar Topo.s1.etherMAC[0] 	droppedPkBitError:sum(packetBytes) 	0
attr interpolationmode  none
attr source  dropPkBitError
attr title  "packets dropped/bit error, sum(packetBytes)"
scalar Topo.s1.etherMAC[0] 	rxPkFromHL:count 	116
attr interpolationmode  none
attr source  rxPkFromHL
attr title  "packet bytes from higher layer, count"
scalar Topo.s1.etherMAC[0] 	rxPkFromHL:sum(packetBytes) 	7424
attr interpolationmode  none
attr source  rxPkFromHL
attr title  "packet bytes from higher layer, sum(packetBytes)"
scalar Topo.s1.etherMAC[0] 	rxPausePkUnits:count 	0
attr interpolationmode  none
attr title  "pause units received, count"
scalar Topo.s1.etherMAC[0] 	rxPausePkUnits:sum 	0
attr interpolationmode  none
attr title  "pause units received, sum"
scalar Topo.s1.etherMAC[0] 	txPausePkUnits:count 	0
attr interpolationmode  none
attr title  "pause units sent, count"
scalar Topo.s1.etherMAC[0] 	txPausePkUnits:sum 	0
attr interpolationmode  none
attr title  "pause units sent, sum"
scalar Topo.s1.etherMAC[0] 	rxPkOk:count 	108
attr interpolationmode  none
attr source  rxPkOk
attr title  "packets received OK, count"
scalar Topo.s1.etherMAC[0] 	rxPkOk:sum(packetBytes) 	6912
attr interpolationmode  none
attr source  rxPkOk
attr title  "packets received OK, sum(packetBytes)"
scalar Topo.s1.etherMAC[0] 	txPk:count 	114
attr interpolationmode  none
attr source  txPk
attr title  "packets transmitted, count"
scalar Topo.s1.etherMAC[0] 	txPk:sum(packetBytes) 	7296
attr interpolationmode  none
attr source  txPk
attr title  "packets transmitted, sum(packetBytes)"
scalar Topo.s1.etherMAC[0] 	backoff:count 	0
attr interpolationmode  none
attr title  "backoff, count"
scalar Topo.s1.etherMAC[0] 	collision:count 	0
attr interpolationmode  none
attr title  "collision, count"
scalar Topo.s1.etherMAC[0] 	passedUpPk:count 	108
attr interpolationmode  none
attr source  packetSentToUpper
attr title  "packets passed to higher layer, count"
scalar Topo.s1.etherMAC[0] 	passedUpPk:sum(packetBytes) 	6912
attr interpolationmode  none
attr source  packetSentToUpper
attr title  "packets passed to higher layer, sum(packetBytes)"
scalar Topo.s1.etherMAC[1] 	"simulated time" 	75.00000788
scalar Topo.s1.etherMAC[1] 	full-duplex 	1
scalar Topo.s1.etherMAC[1] 	"frames/sec sent" 	0.69333326048712
scalar Topo.s1.etherMAC[1] 	"frames/sec rcvd" 	0.7466665882169
scalar Topo.s1.etherMAC[1] 	"bits/sec sent" 	354.9866293694
scalar Topo.s1.etherMAC[1] 	"bits/sec rcvd" 	382.29329316705
scalar Topo.s1.etherMAC[1] 	"rx channel idle (%)" 	99.999956992005
scalar Topo.s1.etherMAC[1] 	"rx channel utilization (%)" 	4.3007995481293e-05
scalar Topo.s1.etherMAC[1] 	"rx channel collision (%)" 	0
scalar Topo.s1.etherMAC[1] 	collisions 	0
scalar Topo.s1.etherMAC[1] 	backoffs 	0
scalar Topo.s1.etherMAC[1] 	droppedPkNotForUs:count 	0
attr interpolationmode  none
attr source  dropPkNotForUs
attr title  "packets dropped/not for us, count"
scalar Topo.s1.etherMAC[1] 	droppedPkNotForUs:sum(packetBytes) 	0
attr interpolationmode  none
attr source  dropPkNotForUs
attr title  "packets dropped/not for us, sum(packetBytes)"
scalar Topo.s1.etherMAC[1] 	droppedPkIfaceDown:count 	0
attr interpolationmode  none
attr source  dropPkIfaceDown
attr title  "packets dropped/interface down, count"
scalar Topo.s1.etherMAC[1] 	droppedPkIfaceDown:sum(packetBytes) 	0
attr interpolationmode  none
attr source  dropPkIfaceDown
attr title  "packets dropped/interface down, sum(packetBytes)"
scalar Topo.s1.etherMAC[1] 	droppedPkBitError:count 	0
attr interpolationmode  none
attr source  dropPkBitError
attr title  "packets dropped/bit error, count"
scalar Topo.s1.etherMAC[1] 	droppedPkBitError:sum(packetBytes) 	0
attr interpolationmode  none
attr source  dropPkBitError
attr title  "packets dropped/bit error, sum(packetBytes)"
scalar Topo.s1.etherMAC[1] 	rxPkFromHL:count 	52
attr interpolationmode  none
attr source  rxPkFromHL
attr title  "packet bytes from higher layer, count"
scalar Topo.s1.etherMAC[1] 	rxPkFromHL:sum(packetBytes) 	3328
attr interpolationmode  none
attr source  rxPkFromHL
attr title  "packet bytes from higher layer, sum(packetBytes)"
scalar Topo.s1.etherMAC[1] 	rxPausePkUnits:count 	0
attr interpolationmode  none
attr title  "pause units received, count"
scalar Topo.s1.etherMAC[1] 	rxPausePkUnits:sum 	0
attr interpolationmode  none
attr title  "pause units received, sum"
scalar Topo.s1.etherMAC[1] 	txPausePkUnits:count 	0
attr interpolationmode  none
attr title  "pause units sent, count"
scalar Topo.s1.etherMAC[1] 	txPausePkUnits:sum 	0
attr interpolationmode  none
attr title  "pause units sent, sum"
scalar Topo.s1.etherMAC[1] 	rxPkOk:count 	56
attr interpolationmode  none
attr source  rxPkOk
attr title  "packets received OK, count"
scalar Topo.s1.etherMAC[1] 	rxPkOk:sum(packetBytes) 	3584
attr interpolationmode  none
attr source  rxPkOk
attr title  "packets received OK, sum(packetBytes)"
scalar Topo.s1.etherMAC[1] 	txPk:count 	52
attr interpolationmode  none
attr source  txPk
attr title  "packets transmitted, count"
scalar Topo.s1.etherMAC[1] 	txPk:sum(packetBytes) 	3328
attr interpolationmode  none
attr source  txPk
attr title  "packets transmitted, sum(packetBytes)"
scalar Topo.s1.etherMAC[1] 	backoff:count 	0
attr interpolationmode  none
attr title  "backoff, count"
scalar Topo.s1.etherMAC[1] 	collision:count 	0
attr interpolationmode  none
attr title  "collision, count"
scalar Topo.s1.etherMAC[1] 	passedUpPk:count 	56
attr interpolationmode  none
attr source  packetSentToUpper
attr title  "packets passed to higher layer, count"
scalar Topo.s1.etherMAC[1] 	passedUpPk:sum(packetBytes) 	3584
attr interpolationmode  none
attr source  packetSentToUpper
attr title  "packets passed to higher layer, sum(packetBytes)"
scalar Topo.s1.etherMAC[2] 	"simulated time" 	75.00000788
scalar Topo.s1.etherMAC[2] 	full-duplex 	1
scalar Topo.s1.etherMAC[2] 	"frames/sec sent" 	0.69333326048712
scalar Topo.s1.etherMAC[2] 	"frames/sec rcvd" 	0.7466665882169
scalar Topo.s1.etherMAC[2] 	"bits/sec sent" 	354.9866293694
scalar Topo.s1.etherMAC[2] 	"bits/sec rcvd" 	382.29329316705
scalar Topo.s1.etherMAC[2] 	"rx channel idle (%)" 	99.999956992005
scalar Topo.s1.etherMAC[2] 	"rx channel utilization (%)" 	4.3007995481293e-05
scalar Topo.s1.etherMAC[2] 	"rx channel collision (%)" 	0
scalar Topo.s1.etherMAC[2] 	collisions 	0
scalar Topo.s1.etherMAC[2] 	backoffs 	0
scalar Topo.s1.etherMAC[2] 	droppedPkNotForUs:count 	0
attr interpolationmode  none
attr source  dropPkNotForUs
attr title  "packets dropped/not for us, count"
scalar Topo.s1.etherMAC[2] 	droppedPkNotForUs:sum(packetBytes) 	0
attr interpolationmode  none
attr source  dropPkNotForUs
attr title  "packets dropped/not for us, sum(packetBytes)"
scalar Topo.s1.etherMAC[2] 	droppedPkIfaceDown:count 	0
attr interpolationmode  none
attr source  dropPkIfaceDown
attr title  "packets dropped/interface down, count"
scalar Topo.s1.etherMAC[2] 	droppedPkIfaceDown:sum(packetBytes) 	0
attr interpolationmode  none
attr source  dropPkIfaceDown
attr title  "packets dropped/interface down, sum(packetBytes)"
scalar Topo.s1.etherMAC[2] 	droppedPkBitError:count 	0
attr interpolationmode  none
attr source  dropPkBitError
attr title  "packets dropped/bit error, count"
scalar Topo.s1.etherMAC[2] 	droppedPkBitError:sum(packetBytes) 	0
attr interpolationmode  none
attr source  dropPkBitError
attr title  "packets dropped/bit error, sum(packetBytes)"
scalar Topo.s1.etherMAC[2] 	rxPkFromHL:count 	52
attr interpolationmode  none
attr source  rxPkFromHL
attr title  "packet bytes from higher layer, count"
scalar Topo.s1.etherMAC[2] 	rxPkFromHL:sum(packetBytes) 	3328
attr interpolationmode  none
attr source  rxPkFromHL
attr title  "packet bytes from higher layer, sum(packetBytes)"
scalar Topo.s1.etherMAC[2] 	rxPausePkUnits:count 	0
attr interpolationmode  none
attr title  "pause units received, count"
scalar Topo.s1.etherMAC[2] 	rxPausePkUnits:sum 	0
attr interpolationmode  none
attr title  "pause units received, sum"
scalar Topo.s1.etherMAC[2] 	txPausePkUnits:count 	0
attr interpolationmode  none
attr title  "pause units sent, count"
scalar Topo.s1.etherMAC[2] 	txPausePkUnits:sum 	0
attr interpolationmode  none
attr title  "pause units sent, sum"
scalar Topo.s1.etherMAC[2] 	rxPkOk:count 	56
attr interpolationmode  none
attr source  rxPkOk
attr title  "packets received OK, count"
scalar Topo.s1.etherMAC[2] 	rxPkOk:sum(packetBytes) 	3584
attr interpolationmode  none
attr source  rxPkOk
attr title  "packets received OK, sum(packetBytes)"
scalar Topo.s1.etherMAC[2] 	txPk:count 	52
attr interpolationmode  none
attr source  txPk
attr title  "packets transmitted, count"
scalar Topo.s1.etherMAC[2] 	txPk:sum(packetBytes) 	3328
attr interpolationmode  none
attr source  txPk
attr title  "packets transmitted, sum(packetBytes)"
scalar Topo.s1.etherMAC[2] 	backoff:count 	0
attr interpolationmode  none
attr title  "backoff, count"
scalar Topo.s1.etherMAC[2] 	collision:count 	0
attr interpolationmode  none
attr title  "collision, count"
scalar Topo.s1.etherMAC[2] 	passedUpPk:count 	56
attr interpolationmode  none
attr source  packetSentToUpper
attr title  "packets passed to higher layer, count"
scalar Topo.s1.etherMAC[2] 	passedUpPk:sum(packetBytes) 	3584
attr interpolationmode  none
attr source  packetSentToUpper
attr title  "packets passed to higher layer, sum(packetBytes)"
scalar Topo.s1.open_Flow_Processing 	droppedPkt:last 	-nan
attr source  droppedPkt
scalar Topo.s2.networkLayer.arp 	failedARPResolution:count 	0
attr title  "ARP failed resolutions, count"
scalar Topo.s2.networkLayer.arp 	completedARPResolution:count 	1
attr title  "ARP completed resolutions, count"
scalar Topo.s2.networkLayer.arp 	initiatedARPResolution:count 	1
attr title  "ARP initiated resolutions, count"
scalar Topo.s2.networkLayer.arp 	sentReply:count 	0
attr title  "ARP replies sent, count"
scalar Topo.s2.networkLayer.arp 	sentReq:count 	1
attr title  "ARP request sent, count"
scalar Topo.s2.eth[0].mac 	"simulated time" 	75.00000788
scalar Topo.s2.eth[0].mac 	full-duplex 	1
scalar Topo.s2.eth[0].mac 	"frames/sec sent" 	0.119999987392
scalar Topo.s2.eth[0].mac 	"frames/sec rcvd" 	0.10666665545956
scalar Topo.s2.eth[0].mac 	"bits/sec sent" 	61.439993544705
scalar Topo.s2.eth[0].mac 	"bits/sec rcvd" 	54.613327595293
scalar Topo.s2.eth[0].mac 	"rx channel idle (%)" 	99.999993856001
scalar Topo.s2.eth[0].mac 	"rx channel utilization (%)" 	6.1439993544705e-06
scalar Topo.s2.eth[0].mac 	droppedPkNotForUs:count 	0
attr interpolationmode  none
attr source  dropPkNotForUs
attr title  "packets dropped/not for us, count"
scalar Topo.s2.eth[0].mac 	droppedPkNotForUs:sum(packetBytes) 	0
attr interpolationmode  none
attr source  dropPkNotForUs
attr title  "packets dropped/not for us, sum(packetBytes)"
scalar Topo.s2.eth[0].mac 	droppedPkIfaceDown:count 	0
attr interpolationmode  none
attr source  dropPkIfaceDown
attr title  "packets dropped/interface down, count"
scalar Topo.s2.eth[0].mac 	droppedPkIfaceDown:sum(packetBytes) 	0
attr interpolationmode  none
attr source  dropPkIfaceDown
attr title  "packets dropped/interface down, sum(packetBytes)"
scalar Topo.s2.eth[0].mac 	droppedPkBitError:count 	0
attr interpolationmode  none
attr source  dropPkBitError
attr title  "packets dropped/bit error, count"
scalar Topo.s2.eth[0].mac 	droppedPkBitError:sum(packetBytes) 	0
attr interpolationmode  none
attr source  dropPkBitError
attr title  "packets dropped/bit error, sum(packetBytes)"
scalar Topo.s2.eth[0].mac 	rxPkFromHL:count 	9
attr interpolationmode  none
attr source  rxPkFromHL
attr title  "packet bytes from higher layer, count"
scalar Topo.s2.eth[0].mac 	rxPkFromHL:sum(packetBytes) 	576
attr interpolationmode  none
attr source  rxPkFromHL
attr title  "packet bytes from higher layer, sum(packetBytes)"
scalar Topo.s2.eth[0].mac 	rxPausePkUnits:count 	0
attr interpolationmode  none
attr title  "pause units received, count"
scalar Topo.s2.eth[0].mac 	rxPausePkUnits:sum 	0
attr interpolationmode  none
attr title  "pause units received, sum"
scalar Topo.s2.eth[0].mac 	txPausePkUnits:count 	0
attr interpolationmode  none
attr title  "pause units sent, count"
scalar Topo.s2.eth[0].mac 	txPausePkUnits:sum 	0
attr interpolationmode  none
attr title  "pause units sent, sum"
scalar Topo.s2.eth[0].mac 	rxPkOk:count 	8
attr interpolationmode  none
attr source  rxPkOk
attr title  "packets received OK, count"
scalar Topo.s2.eth[0].mac 	rxPkOk:sum(packetBytes) 	512
attr interpolationmode  none
attr source  rxPkOk
attr title  "packets received OK, sum(packetBytes)"
scalar Topo.s2.eth[0].mac 	txPk:count 	9
attr interpolationmode  none
attr source  txPk
attr title  "packets transmitted, count"
scalar Topo.s2.eth[0].mac 	txPk:sum(packetBytes) 	576
attr interpolationmode  none
attr source  txPk
attr title  "packets transmitted, sum(packetBytes)"
scalar Topo.s2.eth[0].mac 	passedUpPk:count 	8
attr interpolationmode  none
attr source  packetSentToUpper
attr title  "packets passed to higher layer, count"
scalar Topo.s2.eth[0].mac 	passedUpPk:sum(packetBytes) 	512
attr interpolationmode  none
attr source  packetSentToUpper
attr title  "packets passed to higher layer, sum(packetBytes)"
scalar Topo.s2.eth[0].encap 	pauseSent:count 	0
attr title  "pause sent, count"
scalar Topo.s2.eth[0].encap 	pauseSent:sum 	0
attr title  "pause sent, sum"
scalar Topo.s2.eth[0].encap 	decapPk:count 	8
attr interpolationmode  none
attr source  decapPk
attr title  "packets decapsulated, count"
scalar Topo.s2.eth[0].encap 	decapPk:sum(packetBytes) 	317
attr interpolationmode  none
attr source  decapPk
attr title  "packets decapsulated, sum(packetBytes)"
scalar Topo.s2.eth[0].encap 	encapPk:count 	9
attr interpolationmode  none
attr source  encapPk
attr title  "packets encapsulated, count"
scalar Topo.s2.eth[0].encap 	encapPk:sum(packetBytes) 	353
attr interpolationmode  none
attr source  encapPk
attr title  "packets encapsulated, sum(packetBytes)"
scalar Topo.s2.etherMAC[0] 	"simulated time" 	75.00000788
scalar Topo.s2.etherMAC[0] 	full-duplex 	1
scalar Topo.s2.etherMAC[0] 	"frames/sec sent" 	0.7466665882169
scalar Topo.s2.etherMAC[0] 	"frames/sec rcvd" 	0.69333326048712
scalar Topo.s2.etherMAC[0] 	"bits/sec sent" 	382.29329316705
scalar Topo.s2.etherMAC[0] 	"bits/sec rcvd" 	354.9866293694
scalar Topo.s2.etherMAC[0] 	"rx channel idle (%)" 	99.999960064004
scalar Topo.s2.etherMAC[0] 	"rx channel utilization (%)" 	3.9935995804058e-05
scalar Topo.s2.etherMAC[0] 	"rx channel collision (%)" 	0
scalar Topo.s2.etherMAC[0] 	collisions 	0
scalar Topo.s2.etherMAC[0] 	backoffs 	0
scalar Topo.s2.etherMAC[0] 	droppedPkNotForUs:count 	0
attr interpolationmode  none
attr source  dropPkNotForUs
attr title  "packets dropped/not for us, count"
scalar Topo.s2.etherMAC[0] 	droppedPkNotForUs:sum(packetBytes) 	0
attr interpolationmode  none
attr source  dropPkNotForUs
attr title  "packets dropped/not for us, sum(packetBytes)"
scalar Topo.s2.etherMAC[0] 	droppedPkIfaceDown:count 	0
attr interpolationmode  none
attr source  dropPkIfaceDown
attr title  "packets dropped/interface down, count"
scalar Topo.s2.etherMAC[0] 	droppedPkIfaceDown:sum(packetBytes) 	0
attr interpolationmode  none
attr source  dropPkIfaceDown
attr title  "packets dropped/interface down, sum(packetBytes)"
scalar Topo.s2.etherMAC[0] 	droppedPkBitError:count 	0
attr interpolationmode  none
attr source  dropPkBitError
attr title  "packets dropped/bit error, count"
scalar Topo.s2.etherMAC[0] 	droppedPkBitError:sum(packetBytes) 	0
attr interpolationmode  none
attr source  dropPkBitError
attr title  "packets dropped/bit error, sum(packetBytes)"
scalar Topo.s2.etherMAC[0] 	rxPkFromHL:count 	56
attr interpolationmode  none
attr source  rxPkFromHL
attr title  "packet bytes from higher layer, count"
scalar Topo.s2.etherMAC[0] 	rxPkFromHL:sum(packetBytes) 	3584
attr interpolationmode  none
attr source  rxPkFromHL
attr title  "packet bytes from higher layer, sum(packetBytes)"
scalar Topo.s2.etherMAC[0] 	rxPausePkUnits:count 	0
attr interpolationmode  none
attr title  "pause units received, count"
scalar Topo.s2.etherMAC[0] 	rxPausePkUnits:sum 	0
attr interpolationmode  none
attr title  "pause units received, sum"
scalar Topo.s2.etherMAC[0] 	txPausePkUnits:count 	0
attr interpolationmode  none
attr title  "pause units sent, count"
scalar Topo.s2.etherMAC[0] 	txPausePkUnits:sum 	0
attr interpolationmode  none
attr title  "pause units sent, sum"
scalar Topo.s2.etherMAC[0] 	rxPkOk:count 	52
attr interpolationmode  none
attr source  rxPkOk
attr title  "packets received OK, count"
scalar Topo.s2.etherMAC[0] 	rxPkOk:sum(packetBytes) 	3328
attr interpolationmode  none
attr source  rxPkOk
attr title  "packets received OK, sum(packetBytes)"
scalar Topo.s2.etherMAC[0] 	txPk:count 	56
attr interpolationmode  none
attr source  txPk
attr title  "packets transmitted, count"
scalar Topo.s2.etherMAC[0] 	txPk:sum(packetBytes) 	3584
attr interpolationmode  none
attr source  txPk
attr title  "packets transmitted, sum(packetBytes)"
scalar Topo.s2.etherMAC[0] 	backoff:count 	0
attr interpolationmode  none
attr title  "backoff, count"
scalar Topo.s2.etherMAC[0] 	collision:count 	0
attr interpolationmode  none
attr title  "collision, count"
scalar Topo.s2.etherMAC[0] 	passedUpPk:count 	52
attr interpolationmode  none
attr source  packetSentToUpper
attr title  "packets passed to higher layer, count"
scalar Topo.s2.etherMAC[0] 	passedUpPk:sum(packetBytes) 	3328
attr interpolationmode  none
attr source  packetSentToUpper
attr title  "packets passed to higher layer, sum(packetBytes)"
scalar Topo.s2.etherMAC[1] 	"simulated time" 	75.00000788
scalar Topo.s2.etherMAC[1] 	full-duplex 	1
scalar Topo.s2.etherMAC[1] 	"frames/sec sent" 	0
scalar Topo.s2.etherMAC[1] 	"frames/sec rcvd" 	0
scalar Topo.s2.etherMAC[1] 	"bits/sec sent" 	0
scalar Topo.s2.etherMAC[1] 	"bits/sec rcvd" 	0
scalar Topo.s2.etherMAC[1] 	"rx channel idle (%)" 	100
scalar Topo.s2.etherMAC[1] 	"rx channel utilization (%)" 	0
scalar Topo.s2.etherMAC[1] 	"rx channel collision (%)" 	0
scalar Topo.s2.etherMAC[1] 	collisions 	0
scalar Topo.s2.etherMAC[1] 	backoffs 	0
scalar Topo.s2.etherMAC[1] 	droppedPkNotForUs:count 	0
attr interpolationmode  none
attr source  dropPkNotForUs
attr title  "packets dropped/not for us, count"
scalar Topo.s2.etherMAC[1] 	droppedPkNotForUs:sum(packetBytes) 	0
attr interpolationmode  none
attr source  dropPkNotForUs
attr title  "packets dropped/not for us, sum(packetBytes)"
scalar Topo.s2.etherMAC[1] 	droppedPkIfaceDown:count 	0
attr interpolationmode  none
attr source  dropPkIfaceDown
attr title  "packets dropped/interface down, count"
scalar Topo.s2.etherMAC[1] 	droppedPkIfaceDown:sum(packetBytes) 	0
attr interpolationmode  none
attr source  dropPkIfaceDown
attr title  "packets dropped/interface down, sum(packetBytes)"
scalar Topo.s2.etherMAC[1] 	droppedPkBitError:count 	0
attr interpolationmode  none
attr source  dropPkBitError
attr title  "packets dropped/bit error, count"
scalar Topo.s2.etherMAC[1] 	droppedPkBitError:sum(packetBytes) 	0
attr interpolationmode  none
attr source  dropPkBitError
attr title  "packets dropped/bit error, sum(packetBytes)"
scalar Topo.s2.etherMAC[1] 	rxPkFromHL:count 	0
attr interpolationmode  none
attr source  rxPkFromHL
attr title  "packet bytes from higher layer, count"
scalar Topo.s2.etherMAC[1] 	rxPkFromHL:sum(packetBytes) 	0
attr interpolationmode  none
attr source  rxPkFromHL
attr title  "packet bytes from higher layer, sum(packetBytes)"
scalar Topo.s2.etherMAC[1] 	rxPausePkUnits:count 	0
attr interpolationmode  none
attr title  "pause units received, count"
scalar Topo.s2.etherMAC[1] 	rxPausePkUnits:sum 	0
attr interpolationmode  none
attr title  "pause units received, sum"
scalar Topo.s2.etherMAC[1] 	txPausePkUnits:count 	0
attr interpolationmode  none
attr title  "pause units sent, count"
scalar Topo.s2.etherMAC[1] 	txPausePkUnits:sum 	0
attr interpolationmode  none
attr title  "pause units sent, sum"
scalar Topo.s2.etherMAC[1] 	rxPkOk:count 	0
attr interpolationmode  none
attr source  rxPkOk
attr title  "packets received OK, count"
scalar Topo.s2.etherMAC[1] 	rxPkOk:sum(packetBytes) 	0
attr interpolationmode  none
attr source  rxPkOk
attr title  "packets received OK, sum(packetBytes)"
scalar Topo.s2.etherMAC[1] 	txPk:count 	0
attr interpolationmode  none
attr source  txPk
attr title  "packets transmitted, count"
scalar Topo.s2.etherMAC[1] 	txPk:sum(packetBytes) 	0
attr interpolationmode  none
attr source  txPk
attr title  "packets transmitted, sum(packetBytes)"
scalar Topo.s2.etherMAC[1] 	backoff:count 	0
attr interpolationmode  none
attr title  "backoff, count"
scalar Topo.s2.etherMAC[1] 	collision:count 	0
attr interpolationmode  none
attr title  "collision, count"
scalar Topo.s2.etherMAC[1] 	passedUpPk:count 	0
attr interpolationmode  none
attr source  packetSentToUpper
attr title  "packets passed to higher layer, count"
scalar Topo.s2.etherMAC[1] 	passedUpPk:sum(packetBytes) 	0
attr interpolationmode  none
attr source  packetSentToUpper
attr title  "packets passed to higher layer, sum(packetBytes)"
scalar Topo.s2.etherMAC[2] 	"simulated time" 	75.00000788
scalar Topo.s2.etherMAC[2] 	full-duplex 	1
scalar Topo.s2.etherMAC[2] 	"frames/sec sent" 	0.69333326048712
scalar Topo.s2.etherMAC[2] 	"frames/sec rcvd" 	0.7466665882169
scalar Topo.s2.etherMAC[2] 	"bits/sec sent" 	354.9866293694
scalar Topo.s2.etherMAC[2] 	"bits/sec rcvd" 	382.29329316705
scalar Topo.s2.etherMAC[2] 	"rx channel idle (%)" 	99.999956992005
scalar Topo.s2.etherMAC[2] 	"rx channel utilization (%)" 	4.3007995481293e-05
scalar Topo.s2.etherMAC[2] 	"rx channel collision (%)" 	0
scalar Topo.s2.etherMAC[2] 	collisions 	0
scalar Topo.s2.etherMAC[2] 	backoffs 	0
scalar Topo.s2.etherMAC[2] 	droppedPkNotForUs:count 	0
attr interpolationmode  none
attr source  dropPkNotForUs
attr title  "packets dropped/not for us, count"
scalar Topo.s2.etherMAC[2] 	droppedPkNotForUs:sum(packetBytes) 	0
attr interpolationmode  none
attr source  dropPkNotForUs
attr title  "packets dropped/not for us, sum(packetBytes)"
scalar Topo.s2.etherMAC[2] 	droppedPkIfaceDown:count 	0
attr interpolationmode  none
attr source  dropPkIfaceDown
attr title  "packets dropped/interface down, count"
scalar Topo.s2.etherMAC[2] 	droppedPkIfaceDown:sum(packetBytes) 	0
attr interpolationmode  none
attr source  dropPkIfaceDown
attr title  "packets dropped/interface down, sum(packetBytes)"
scalar Topo.s2.etherMAC[2] 	droppedPkBitError:count 	0
attr interpolationmode  none
attr source  dropPkBitError
attr title  "packets dropped/bit error, count"
scalar Topo.s2.etherMAC[2] 	droppedPkBitError:sum(packetBytes) 	0
attr interpolationmode  none
attr source  dropPkBitError
attr title  "packets dropped/bit error, sum(packetBytes)"
scalar Topo.s2.etherMAC[2] 	rxPkFromHL:count 	52
attr interpolationmode  none
attr source  rxPkFromHL
attr title  "packet bytes from higher layer, count"
scalar Topo.s2.etherMAC[2] 	rxPkFromHL:sum(packetBytes) 	3328
attr interpolationmode  none
attr source  rxPkFromHL
attr title  "packet bytes from higher layer, sum(packetBytes)"
scalar Topo.s2.etherMAC[2] 	rxPausePkUnits:count 	0
attr interpolationmode  none
attr title  "pause units received, count"
scalar Topo.s2.etherMAC[2] 	rxPausePkUnits:sum 	0
attr interpolationmode  none
attr title  "pause units received, sum"
scalar Topo.s2.etherMAC[2] 	txPausePkUnits:count 	0
attr interpolationmode  none
attr title  "pause units sent, count"
scalar Topo.s2.etherMAC[2] 	txPausePkUnits:sum 	0
attr interpolationmode  none
attr title  "pause units sent, sum"
scalar Topo.s2.etherMAC[2] 	rxPkOk:count 	56
attr interpolationmode  none
attr source  rxPkOk
attr title  "packets received OK, count"
scalar Topo.s2.etherMAC[2] 	rxPkOk:sum(packetBytes) 	3584
attr interpolationmode  none
attr source  rxPkOk
attr title  "packets received OK, sum(packetBytes)"
scalar Topo.s2.etherMAC[2] 	txPk:count 	52
attr interpolationmode  none
attr source  txPk
attr title  "packets transmitted, count"
scalar Topo.s2.etherMAC[2] 	txPk:sum(packetBytes) 	3328
attr interpolationmode  none
attr source  txPk
attr title  "packets transmitted, sum(packetBytes)"
scalar Topo.s2.etherMAC[2] 	backoff:count 	0
attr interpolationmode  none
attr title  "backoff, count"
scalar Topo.s2.etherMAC[2] 	collision:count 	0
attr interpolationmode  none
attr title  "collision, count"
scalar Topo.s2.etherMAC[2] 	passedUpPk:count 	56
attr interpolationmode  none
attr source  packetSentToUpper
attr title  "packets passed to higher layer, count"
scalar Topo.s2.etherMAC[2] 	passedUpPk:sum(packetBytes) 	3584
attr interpolationmode  none
attr source  packetSentToUpper
attr title  "packets passed to higher layer, sum(packetBytes)"
scalar Topo.s2.open_Flow_Processing 	droppedPkt:last 	-nan
attr source  droppedPkt
scalar Topo.s3.networkLayer.arp 	failedARPResolution:count 	0
attr title  "ARP failed resolutions, count"
scalar Topo.s3.networkLayer.arp 	completedARPResolution:count 	1
attr title  "ARP completed resolutions, count"
scalar Topo.s3.networkLayer.arp 	initiatedARPResolution:count 	1
attr title  "ARP initiated resolutions, count"
scalar Topo.s3.networkLayer.arp 	sentReply:count 	0
attr title  "ARP replies sent, count"
scalar Topo.s3.networkLayer.arp 	sentReq:count 	1
attr title  "ARP request sent, count"
scalar Topo.s3.eth[0].mac 	"simulated time" 	75.00000788
scalar Topo.s3.eth[0].mac 	full-duplex 	1
scalar Topo.s3.eth[0].mac 	"frames/sec sent" 	0.119999987392
scalar Topo.s3.eth[0].mac 	"frames/sec rcvd" 	0.10666665545956
scalar Topo.s3.eth[0].mac 	"bits/sec sent" 	61.439993544705
scalar Topo.s3.eth[0].mac 	"bits/sec rcvd" 	54.613327595293
scalar Topo.s3.eth[0].mac 	"rx channel idle (%)" 	99.999993856001
scalar Topo.s3.eth[0].mac 	"rx channel utilization (%)" 	6.1439993544705e-06
scalar Topo.s3.eth[0].mac 	droppedPkNotForUs:count 	0
attr interpolationmode  none
attr source  dropPkNotForUs
attr title  "packets dropped/not for us, count"
scalar Topo.s3.eth[0].mac 	droppedPkNotForUs:sum(packetBytes) 	0
attr interpolationmode  none
attr source  dropPkNotForUs
attr title  "packets dropped/not for us, sum(packetBytes)"
scalar Topo.s3.eth[0].mac 	droppedPkIfaceDown:count 	0
attr interpolationmode  none
attr source  dropPkIfaceDown
attr title  "packets dropped/interface down, count"
scalar Topo.s3.eth[0].mac 	droppedPkIfaceDown:sum(packetBytes) 	0
attr interpolationmode  none
attr source  dropPkIfaceDown
attr title  "packets dropped/interface down, sum(packetBytes)"
scalar Topo.s3.eth[0].mac 	droppedPkBitError:count 	0
attr interpolationmode  none
attr source  dropPkBitError
attr title  "packets dropped/bit error, count"
scalar Topo.s3.eth[0].mac 	droppedPkBitError:sum(packetBytes) 	0
attr interpolationmode  none
attr source  dropPkBitError
attr title  "packets dropped/bit error, sum(packetBytes)"
scalar Topo.s3.eth[0].mac 	rxPkFromHL:count 	9
attr interpolationmode  none
attr source  rxPkFromHL
attr title  "packet bytes from higher layer, count"
scalar Topo.s3.eth[0].mac 	rxPkFromHL:sum(packetBytes) 	576
attr interpolationmode  none
attr source  rxPkFromHL
attr title  "packet bytes from higher layer, sum(packetBytes)"
scalar Topo.s3.eth[0].mac 	rxPausePkUnits:count 	0
attr interpolationmode  none
attr title  "pause units received, count"
scalar Topo.s3.eth[0].mac 	rxPausePkUnits:sum 	0
attr interpolationmode  none
attr title  "pause units received, sum"
scalar Topo.s3.eth[0].mac 	txPausePkUnits:count 	0
attr interpolationmode  none
attr title  "pause units sent, count"
scalar Topo.s3.eth[0].mac 	txPausePkUnits:sum 	0
attr interpolationmode  none
attr title  "pause units sent, sum"
scalar Topo.s3.eth[0].mac 	rxPkOk:count 	8
attr interpolationmode  none
attr source  rxPkOk
attr title  "packets received OK, count"
scalar Topo.s3.eth[0].mac 	rxPkOk:sum(packetBytes) 	512
attr interpolationmode  none
attr source  rxPkOk
attr title  "packets received OK, sum(packetBytes)"
scalar Topo.s3.eth[0].mac 	txPk:count 	9
attr interpolationmode  none
attr source  txPk
attr title  "packets transmitted, count"
scalar Topo.s3.eth[0].mac 	txPk:sum(packetBytes) 	576
attr interpolationmode  none
attr source  txPk
attr title  "packets transmitted, sum(packetBytes)"
scalar Topo.s3.eth[0].mac 	passedUpPk:count 	8
attr interpolationmode  none
attr source  packetSentToUpper
attr title  "packets passed to higher layer, count"
scalar Topo.s3.eth[0].mac 	passedUpPk:sum(packetBytes) 	512
attr interpolationmode  none
attr source  packetSentToUpper
attr title  "packets passed to higher layer, sum(packetBytes)"
scalar Topo.s3.eth[0].encap 	pauseSent:count 	0
attr title  "pause sent, count"
scalar Topo.s3.eth[0].encap 	pauseSent:sum 	0
attr title  "pause sent, sum"
scalar Topo.s3.eth[0].encap 	decapPk:count 	8
attr interpolationmode  none
attr source  decapPk
attr title  "packets decapsulated, count"
scalar Topo.s3.eth[0].encap 	decapPk:sum(packetBytes) 	317
attr interpolationmode  none
attr source  decapPk
attr title  "packets decapsulated, sum(packetBytes)"
scalar Topo.s3.eth[0].encap 	encapPk:count 	9
attr interpolationmode  none
attr source  encapPk
attr title  "packets encapsulated, count"
scalar Topo.s3.eth[0].encap 	encapPk:sum(packetBytes) 	353
attr interpolationmode  none
attr source  encapPk
attr title  "packets encapsulated, sum(packetBytes)"
scalar Topo.s3.etherMAC[0] 	"simulated time" 	75.00000788
scalar Topo.s3.etherMAC[0] 	full-duplex 	1
scalar Topo.s3.etherMAC[0] 	"frames/sec sent" 	0.7466665882169
scalar Topo.s3.etherMAC[0] 	"frames/sec rcvd" 	0.69333326048712
scalar Topo.s3.etherMAC[0] 	"bits/sec sent" 	382.29329316705
scalar Topo.s3.etherMAC[0] 	"bits/sec rcvd" 	354.9866293694
scalar Topo.s3.etherMAC[0] 	"rx channel idle (%)" 	99.999960064004
scalar Topo.s3.etherMAC[0] 	"rx channel utilization (%)" 	3.9935995804058e-05
scalar Topo.s3.etherMAC[0] 	"rx channel collision (%)" 	0
scalar Topo.s3.etherMAC[0] 	collisions 	0
scalar Topo.s3.etherMAC[0] 	backoffs 	0
scalar Topo.s3.etherMAC[0] 	droppedPkNotForUs:count 	0
attr interpolationmode  none
attr source  dropPkNotForUs
attr title  "packets dropped/not for us, count"
scalar Topo.s3.etherMAC[0] 	droppedPkNotForUs:sum(packetBytes) 	0
attr interpolationmode  none
attr source  dropPkNotForUs
attr title  "packets dropped/not for us, sum(packetBytes)"
scalar Topo.s3.etherMAC[0] 	droppedPkIfaceDown:count 	0
attr interpolationmode  none
attr source  dropPkIfaceDown
attr title  "packets dropped/interface down, count"
scalar Topo.s3.etherMAC[0] 	droppedPkIfaceDown:sum(packetBytes) 	0
attr interpolationmode  none
attr source  dropPkIfaceDown
attr title  "packets dropped/interface down, sum(packetBytes)"
scalar Topo.s3.etherMAC[0] 	droppedPkBitError:count 	0
attr interpolationmode  none
attr source  dropPkBitError
attr title  "packets dropped/bit error, count"
scalar Topo.s3.etherMAC[0] 	droppedPkBitError:sum(packetBytes) 	0
attr interpolationmode  none
attr source  dropPkBitError
attr title  "packets dropped/bit error, sum(packetBytes)"
scalar Topo.s3.etherMAC[0] 	rxPkFromHL:count 	56
attr interpolationmode  none
attr source  rxPkFromHL
attr title  "packet bytes from higher layer, count"
scalar Topo.s3.etherMAC[0] 	rxPkFromHL:sum(packetBytes) 	3584
attr interpolationmode  none
attr source  rxPkFromHL
attr title  "packet bytes from higher layer, sum(packetBytes)"
scalar Topo.s3.etherMAC[0] 	rxPausePkUnits:count 	0
attr interpolationmode  none
attr title  "pause units received, count"
scalar Topo.s3.etherMAC[0] 	rxPausePkUnits:sum 	0
attr interpolationmode  none
attr title  "pause units received, sum"
scalar Topo.s3.etherMAC[0] 	txPausePkUnits:count 	0
attr interpolationmode  none
attr title  "pause units sent, count"
scalar Topo.s3.etherMAC[0] 	txPausePkUnits:sum 	0
attr interpolationmode  none
attr title  "pause units sent, sum"
scalar Topo.s3.etherMAC[0] 	rxPkOk:count 	52
attr interpolationmode  none
attr source  rxPkOk
attr title  "packets received OK, count"
scalar Topo.s3.etherMAC[0] 	rxPkOk:sum(packetBytes) 	3328
attr interpolationmode  none
attr source  rxPkOk
attr title  "packets received OK, sum(packetBytes)"
scalar Topo.s3.etherMAC[0] 	txPk:count 	56
attr interpolationmode  none
attr source  txPk
attr title  "packets transmitted, count"
scalar Topo.s3.etherMAC[0] 	txPk:sum(packetBytes) 	3584
attr interpolationmode  none
attr source  txPk
attr title  "packets transmitted, sum(packetBytes)"
scalar Topo.s3.etherMAC[0] 	backoff:count 	0
attr interpolationmode  none
attr title  "backoff, count"
scalar Topo.s3.etherMAC[0] 	collision:count 	0
attr interpolationmode  none
attr title  "collision, count"
scalar Topo.s3.etherMAC[0] 	passedUpPk:count 	52
attr interpolationmode  none
attr source  packetSentToUpper
attr title  "packets passed to higher layer, count"
scalar Topo.s3.etherMAC[0] 	passedUpPk:sum(packetBytes) 	3328
attr interpolationmode  none
attr source  packetSentToUpper
attr title  "packets passed to higher layer, sum(packetBytes)"
scalar Topo.s3.etherMAC[1] 	"simulated time" 	75.00000788
scalar Topo.s3.etherMAC[1] 	full-duplex 	1
scalar Topo.s3.etherMAC[1] 	"frames/sec sent" 	0
scalar Topo.s3.etherMAC[1] 	"frames/sec rcvd" 	0
scalar Topo.s3.etherMAC[1] 	"bits/sec sent" 	0
scalar Topo.s3.etherMAC[1] 	"bits/sec rcvd" 	0
scalar Topo.s3.etherMAC[1] 	"rx channel idle (%)" 	100
scalar Topo.s3.etherMAC[1] 	"rx channel utilization (%)" 	0
scalar Topo.s3.etherMAC[1] 	"rx channel collision (%)" 	0
scalar Topo.s3.etherMAC[1] 	collisions 	0
scalar Topo.s3.etherMAC[1] 	backoffs 	0
scalar Topo.s3.etherMAC[1] 	droppedPkNotForUs:count 	0
attr interpolationmode  none
attr source  dropPkNotForUs
attr title  "packets dropped/not for us, count"
scalar Topo.s3.etherMAC[1] 	droppedPkNotForUs:sum(packetBytes) 	0
attr interpolationmode  none
attr source  dropPkNotForUs
attr title  "packets dropped/not for us, sum(packetBytes)"
scalar Topo.s3.etherMAC[1] 	droppedPkIfaceDown:count 	0
attr interpolationmode  none
attr source  dropPkIfaceDown
attr title  "packets dropped/interface down, count"
scalar Topo.s3.etherMAC[1] 	droppedPkIfaceDown:sum(packetBytes) 	0
attr interpolationmode  none
attr source  dropPkIfaceDown
attr title  "packets dropped/interface down, sum(packetBytes)"
scalar Topo.s3.etherMAC[1] 	droppedPkBitError:count 	0
attr interpolationmode  none
attr source  dropPkBitError
attr title  "packets dropped/bit error, count"
scalar Topo.s3.etherMAC[1] 	droppedPkBitError:sum(packetBytes) 	0
attr interpolationmode  none
attr source  dropPkBitError
attr title  "packets dropped/bit error, sum(packetBytes)"
scalar Topo.s3.etherMAC[1] 	rxPkFromHL:count 	0
attr interpolationmode  none
attr source  rxPkFromHL
attr title  "packet bytes from higher layer, count"
scalar Topo.s3.etherMAC[1] 	rxPkFromHL:sum(packetBytes) 	0
attr interpolationmode  none
attr source  rxPkFromHL
attr title  "packet bytes from higher layer, sum(packetBytes)"
scalar Topo.s3.etherMAC[1] 	rxPausePkUnits:count 	0
attr interpolationmode  none
attr title  "pause units received, count"
scalar Topo.s3.etherMAC[1] 	rxPausePkUnits:sum 	0
attr interpolationmode  none
attr title  "pause units received, sum"
scalar Topo.s3.etherMAC[1] 	txPausePkUnits:count 	0
attr interpolationmode  none
attr title  "pause units sent, count"
scalar Topo.s3.etherMAC[1] 	txPausePkUnits:sum 	0
attr interpolationmode  none
attr title  "pause units sent, sum"
scalar Topo.s3.etherMAC[1] 	rxPkOk:count 	0
attr interpolationmode  none
attr source  rxPkOk
attr title  "packets received OK, count"
scalar Topo.s3.etherMAC[1] 	rxPkOk:sum(packetBytes) 	0
attr interpolationmode  none
attr source  rxPkOk
attr title  "packets received OK, sum(packetBytes)"
scalar Topo.s3.etherMAC[1] 	txPk:count 	0
attr interpolationmode  none
attr source  txPk
attr title  "packets transmitted, count"
scalar Topo.s3.etherMAC[1] 	txPk:sum(packetBytes) 	0
attr interpolationmode  none
attr source  txPk
attr title  "packets transmitted, sum(packetBytes)"
scalar Topo.s3.etherMAC[1] 	backoff:count 	0
attr interpolationmode  none
attr title  "backoff, count"
scalar Topo.s3.etherMAC[1] 	collision:count 	0
attr interpolationmode  none
attr title  "collision, count"
scalar Topo.s3.etherMAC[1] 	passedUpPk:count 	0
attr interpolationmode  none
attr source  packetSentToUpper
attr title  "packets passed to higher layer, count"
scalar Topo.s3.etherMAC[1] 	passedUpPk:sum(packetBytes) 	0
attr interpolationmode  none
attr source  packetSentToUpper
attr title  "packets passed to higher layer, sum(packetBytes)"
scalar Topo.s3.etherMAC[2] 	"simulated time" 	75.00000788
scalar Topo.s3.etherMAC[2] 	full-duplex 	1
scalar Topo.s3.etherMAC[2] 	"frames/sec sent" 	0.69333326048712
scalar Topo.s3.etherMAC[2] 	"frames/sec rcvd" 	0.7466665882169
scalar Topo.s3.etherMAC[2] 	"bits/sec sent" 	354.9866293694
scalar Topo.s3.etherMAC[2] 	"bits/sec rcvd" 	382.29329316705
scalar Topo.s3.etherMAC[2] 	"rx channel idle (%)" 	99.999956992005
scalar Topo.s3.etherMAC[2] 	"rx channel utilization (%)" 	4.3007995481293e-05
scalar Topo.s3.etherMAC[2] 	"rx channel collision (%)" 	0
scalar Topo.s3.etherMAC[2] 	collisions 	0
scalar Topo.s3.etherMAC[2] 	backoffs 	0
scalar Topo.s3.etherMAC[2] 	droppedPkNotForUs:count 	0
attr interpolationmode  none
attr source  dropPkNotForUs
attr title  "packets dropped/not for us, count"
scalar Topo.s3.etherMAC[2] 	droppedPkNotForUs:sum(packetBytes) 	0
attr interpolationmode  none
attr source  dropPkNotForUs
attr title  "packets dropped/not for us, sum(packetBytes)"
scalar Topo.s3.etherMAC[2] 	droppedPkIfaceDown:count 	0
attr interpolationmode  none
attr source  dropPkIfaceDown
attr title  "packets dropped/interface down, count"
scalar Topo.s3.etherMAC[2] 	droppedPkIfaceDown:sum(packetBytes) 	0
attr interpolationmode  none
attr source  dropPkIfaceDown
attr title  "packets dropped/interface down, sum(packetBytes)"
scalar Topo.s3.etherMAC[2] 	droppedPkBitError:count 	0
attr interpolationmode  none
attr source  dropPkBitError
attr title  "packets dropped/bit error, count"
scalar Topo.s3.etherMAC[2] 	droppedPkBitError:sum(packetBytes) 	0
attr interpolationmode  none
attr source  dropPkBitError
attr title  "packets dropped/bit error, sum(packetBytes)"
scalar Topo.s3.etherMAC[2] 	rxPkFromHL:count 	52
attr interpolationmode  none
attr source  rxPkFromHL
attr title  "packet bytes from higher layer, count"
scalar Topo.s3.etherMAC[2] 	rxPkFromHL:sum(packetBytes) 	3328
attr interpolationmode  none
attr source  rxPkFromHL
attr title  "packet bytes from higher layer, sum(packetBytes)"
scalar Topo.s3.etherMAC[2] 	rxPausePkUnits:count 	0
attr interpolationmode  none
attr title  "pause units received, count"
scalar Topo.s3.etherMAC[2] 	rxPausePkUnits:sum 	0
attr interpolationmode  none
attr title  "pause units received, sum"
scalar Topo.s3.etherMAC[2] 	txPausePkUnits:count 	0
attr interpolationmode  none
attr title  "pause units sent, count"
scalar Topo.s3.etherMAC[2] 	txPausePkUnits:sum 	0
attr interpolationmode  none
attr title  "pause units sent, sum"
scalar Topo.s3.etherMAC[2] 	rxPkOk:count 	56
attr interpolationmode  none
attr source  rxPkOk
attr title  "packets received OK, count"
scalar Topo.s3.etherMAC[2] 	rxPkOk:sum(packetBytes) 	3584
attr interpolationmode  none
attr source  rxPkOk
attr title  "packets received OK, sum(packetBytes)"
scalar Topo.s3.etherMAC[2] 	txPk:count 	52
attr interpolationmode  none
attr source  txPk
attr title  "packets transmitted, count"
scalar Topo.s3.etherMAC[2] 	txPk:sum(packetBytes) 	3328
attr interpolationmode  none
attr source  txPk
attr title  "packets transmitted, sum(packetBytes)"
scalar Topo.s3.etherMAC[2] 	backoff:count 	0
attr interpolationmode  none
attr title  "backoff, count"
scalar Topo.s3.etherMAC[2] 	collision:count 	0
attr interpolationmode  none
attr title  "collision, count"
scalar Topo.s3.etherMAC[2] 	passedUpPk:count 	56
attr interpolationmode  none
attr source  packetSentToUpper
attr title  "packets passed to higher layer, count"
scalar Topo.s3.etherMAC[2] 	passedUpPk:sum(packetBytes) 	3584
attr interpolationmode  none
attr source  packetSentToUpper
attr title  "packets passed to higher layer, sum(packetBytes)"
scalar Topo.s3.open_Flow_Processing 	droppedPkt:last 	-nan
attr source  droppedPkt
scalar Topo.s4.networkLayer.arp 	failedARPResolution:count 	0
attr title  "ARP failed resolutions, count"
scalar Topo.s4.networkLayer.arp 	completedARPResolution:count 	1
attr title  "ARP completed resolutions, count"
scalar Topo.s4.networkLayer.arp 	initiatedARPResolution:count 	1
attr title  "ARP initiated resolutions, count"
scalar Topo.s4.networkLayer.arp 	sentReply:count 	0
attr title  "ARP replies sent, count"
scalar Topo.s4.networkLayer.arp 	sentReq:count 	1
attr title  "ARP request sent, count"
scalar Topo.s4.eth[0].mac 	"simulated time" 	75.00000788
scalar Topo.s4.eth[0].mac 	full-duplex 	1
scalar Topo.s4.eth[0].mac 	"frames/sec sent" 	0.119999987392
scalar Topo.s4.eth[0].mac 	"frames/sec rcvd" 	0.10666665545956
scalar Topo.s4.eth[0].mac 	"bits/sec sent" 	61.439993544705
scalar Topo.s4.eth[0].mac 	"bits/sec rcvd" 	54.613327595293
scalar Topo.s4.eth[0].mac 	"rx channel idle (%)" 	99.999993856001
scalar Topo.s4.eth[0].mac 	"rx channel utilization (%)" 	6.1439993544705e-06
scalar Topo.s4.eth[0].mac 	droppedPkNotForUs:count 	0
attr interpolationmode  none
attr source  dropPkNotForUs
attr title  "packets dropped/not for us, count"
scalar Topo.s4.eth[0].mac 	droppedPkNotForUs:sum(packetBytes) 	0
attr interpolationmode  none
attr source  dropPkNotForUs
attr title  "packets dropped/not for us, sum(packetBytes)"
scalar Topo.s4.eth[0].mac 	droppedPkIfaceDown:count 	0
attr interpolationmode  none
attr source  dropPkIfaceDown
attr title  "packets dropped/interface down, count"
scalar Topo.s4.eth[0].mac 	droppedPkIfaceDown:sum(packetBytes) 	0
attr interpolationmode  none
attr source  dropPkIfaceDown
attr title  "packets dropped/interface down, sum(packetBytes)"
scalar Topo.s4.eth[0].mac 	droppedPkBitError:count 	0
attr interpolationmode  none
attr source  dropPkBitError
attr title  "packets dropped/bit error, count"
scalar Topo.s4.eth[0].mac 	droppedPkBitError:sum(packetBytes) 	0
attr interpolationmode  none
attr source  dropPkBitError
attr title  "packets dropped/bit error, sum(packetBytes)"
scalar Topo.s4.eth[0].mac 	rxPkFromHL:count 	9
attr interpolationmode  none
attr source  rxPkFromHL
attr title  "packet bytes from higher layer, count"
scalar Topo.s4.eth[0].mac 	rxPkFromHL:sum(packetBytes) 	576
attr interpolationmode  none
attr source  rxPkFromHL
attr title  "packet bytes from higher layer, sum(packetBytes)"
scalar Topo.s4.eth[0].mac 	rxPausePkUnits:count 	0
attr interpolationmode  none
attr title  "pause units received, count"
scalar Topo.s4.eth[0].mac 	rxPausePkUnits:sum 	0
attr interpolationmode  none
attr title  "pause units received, sum"
scalar Topo.s4.eth[0].mac 	txPausePkUnits:count 	0
attr interpolationmode  none
attr title  "pause units sent, count"
scalar Topo.s4.eth[0].mac 	txPausePkUnits:sum 	0
attr interpolationmode  none
attr title  "pause units sent, sum"
scalar Topo.s4.eth[0].mac 	rxPkOk:count 	8
attr interpolationmode  none
attr source  rxPkOk
attr title  "packets received OK, count"
scalar Topo.s4.eth[0].mac 	rxPkOk:sum(packetBytes) 	512
attr interpolationmode  none
attr source  rxPkOk
attr title  "packets received OK, sum(packetBytes)"
scalar Topo.s4.eth[0].mac 	txPk:count 	9
attr interpolationmode  none
attr source  txPk
attr title  "packets transmitted, count"
scalar Topo.s4.eth[0].mac 	txPk:sum(packetBytes) 	576
attr interpolationmode  none
attr source  txPk
attr title  "packets transmitted, sum(packetBytes)"
scalar Topo.s4.eth[0].mac 	passedUpPk:count 	8
attr interpolationmode  none
attr source  packetSentToUpper
attr title  "packets passed to higher layer, count"
scalar Topo.s4.eth[0].mac 	passedUpPk:sum(packetBytes) 	512
attr interpolationmode  none
attr source  packetSentToUpper
attr title  "packets passed to higher layer, sum(packetBytes)"
scalar Topo.s4.eth[0].encap 	pauseSent:count 	0
attr title  "pause sent, count"
scalar Topo.s4.eth[0].encap 	pauseSent:sum 	0
attr title  "pause sent, sum"
scalar Topo.s4.eth[0].encap 	decapPk:count 	8
attr interpolationmode  none
attr source  decapPk
attr title  "packets decapsulated, count"
scalar Topo.s4.eth[0].encap 	decapPk:sum(packetBytes) 	317
attr interpolationmode  none
attr source  decapPk
attr title  "packets decapsulated, sum(packetBytes)"
scalar Topo.s4.eth[0].encap 	encapPk:count 	9
attr interpolationmode  none
attr source  encapPk
attr title  "packets encapsulated, count"
scalar Topo.s4.eth[0].encap 	encapPk:sum(packetBytes) 	353
attr interpolationmode  none
attr source  encapPk
attr title  "packets encapsulated, sum(packetBytes)"
scalar Topo.s4.etherMAC[0] 	"simulated time" 	75.00000788
scalar Topo.s4.etherMAC[0] 	full-duplex 	1
scalar Topo.s4.etherMAC[0] 	"frames/sec sent" 	0.7466665882169
scalar Topo.s4.etherMAC[0] 	"frames/sec rcvd" 	0.69333326048712
scalar Topo.s4.etherMAC[0] 	"bits/sec sent" 	382.29329316705
scalar Topo.s4.etherMAC[0] 	"bits/sec rcvd" 	354.9866293694
scalar Topo.s4.etherMAC[0] 	"rx channel idle (%)" 	99.999960064004
scalar Topo.s4.etherMAC[0] 	"rx channel utilization (%)" 	3.9935995804058e-05
scalar Topo.s4.etherMAC[0] 	"rx channel collision (%)" 	0
scalar Topo.s4.etherMAC[0] 	collisions 	0
scalar Topo.s4.etherMAC[0] 	backoffs 	0
scalar Topo.s4.etherMAC[0] 	droppedPkNotForUs:count 	0
attr interpolationmode  none
attr source  dropPkNotForUs
attr title  "packets dropped/not for us, count"
scalar Topo.s4.etherMAC[0] 	droppedPkNotForUs:sum(packetBytes) 	0
attr interpolationmode  none
attr source  dropPkNotForUs
attr title  "packets dropped/not for us, sum(packetBytes)"
scalar Topo.s4.etherMAC[0] 	droppedPkIfaceDown:count 	0
attr interpolationmode  none
attr source  dropPkIfaceDown
attr title  "packets dropped/interface down, count"
scalar Topo.s4.etherMAC[0] 	droppedPkIfaceDown:sum(packetBytes) 	0
attr interpolationmode  none
attr source  dropPkIfaceDown
attr title  "packets dropped/interface down, sum(packetBytes)"
scalar Topo.s4.etherMAC[0] 	droppedPkBitError:count 	0
attr interpolationmode  none
attr source  dropPkBitError
attr title  "packets dropped/bit error, count"
scalar Topo.s4.etherMAC[0] 	droppedPkBitError:sum(packetBytes) 	0
attr interpolationmode  none
attr source  dropPkBitError
attr title  "packets dropped/bit error, sum(packetBytes)"
scalar Topo.s4.etherMAC[0] 	rxPkFromHL:count 	56
attr interpolationmode  none
attr source  rxPkFromHL
attr title  "packet bytes from higher layer, count"
scalar Topo.s4.etherMAC[0] 	rxPkFromHL:sum(packetBytes) 	3584
attr interpolationmode  none
attr source  rxPkFromHL
attr title  "packet bytes from higher layer, sum(packetBytes)"
scalar Topo.s4.etherMAC[0] 	rxPausePkUnits:count 	0
attr interpolationmode  none
attr title  "pause units received, count"
scalar Topo.s4.etherMAC[0] 	rxPausePkUnits:sum 	0
attr interpolationmode  none
attr title  "pause units received, sum"
scalar Topo.s4.etherMAC[0] 	txPausePkUnits:count 	0
attr interpolationmode  none
attr title  "pause units sent, count"
scalar Topo.s4.etherMAC[0] 	txPausePkUnits:sum 	0
attr interpolationmode  none
attr title  "pause units sent, sum"
scalar Topo.s4.etherMAC[0] 	rxPkOk:count 	52
attr interpolationmode  none
attr source  rxPkOk
attr title  "packets received OK, count"
scalar Topo.s4.etherMAC[0] 	rxPkOk:sum(packetBytes) 	3328
attr interpolationmode  none
attr source  rxPkOk
attr title  "packets received OK, sum(packetBytes)"
scalar Topo.s4.etherMAC[0] 	txPk:count 	56
attr interpolationmode  none
attr source  txPk
attr title  "packets transmitted, count"
scalar Topo.s4.etherMAC[0] 	txPk:sum(packetBytes) 	3584
attr interpolationmode  none
attr source  txPk
attr title  "packets transmitted, sum(packetBytes)"
scalar Topo.s4.etherMAC[0] 	backoff:count 	0
attr interpolationmode  none
attr title  "backoff, count"
scalar Topo.s4.etherMAC[0] 	collision:count 	0
attr interpolationmode  none
attr title  "collision, count"
scalar Topo.s4.etherMAC[0] 	passedUpPk:count 	52
attr interpolationmode  none
attr source  packetSentToUpper
attr title  "packets passed to higher layer, count"
scalar Topo.s4.etherMAC[0] 	passedUpPk:sum(packetBytes) 	3328
attr interpolationmode  none
attr source  packetSentToUpper
attr title  "packets passed to higher layer, sum(packetBytes)"
scalar Topo.s4.etherMAC[1] 	"simulated time" 	75.00000788
scalar Topo.s4.etherMAC[1] 	full-duplex 	1
scalar Topo.s4.etherMAC[1] 	"frames/sec sent" 	0.69333326048712
scalar Topo.s4.etherMAC[1] 	"frames/sec rcvd" 	0.7466665882169
scalar Topo.s4.etherMAC[1] 	"bits/sec sent" 	354.9866293694
scalar Topo.s4.etherMAC[1] 	"bits/sec rcvd" 	382.29329316705
scalar Topo.s4.etherMAC[1] 	"rx channel idle (%)" 	99.999956992005
scalar Topo.s4.etherMAC[1] 	"rx channel utilization (%)" 	4.3007995481293e-05
scalar Topo.s4.etherMAC[1] 	"rx channel collision (%)" 	0
scalar Topo.s4.etherMAC[1] 	collisions 	0
scalar Topo.s4.etherMAC[1] 	backoffs 	0
scalar Topo.s4.etherMAC[1] 	droppedPkNotForUs:count 	0
attr interpolationmode  none
attr source  dropPkNotForUs
attr title  "packets dropped/not for us, count"
scalar Topo.s4.etherMAC[1] 	droppedPkNotForUs:sum(packetBytes) 	0
attr interpolationmode  none
attr source  dropPkNotForUs
attr title  "packets dropped/not for us, sum(packetBytes)"
scalar Topo.s4.etherMAC[1] 	droppedPkIfaceDown:count 	0
attr interpolationmode  none
attr source  dropPkIfaceDown
attr title  "packets dropped/interface down, count"
scalar Topo.s4.etherMAC[1] 	droppedPkIfaceDown:sum(packetBytes) 	0
attr interpolationmode  none
attr source  dropPkIfaceDown
attr title  "packets dropped/interface down, sum(packetBytes)"
scalar Topo.s4.etherMAC[1] 	droppedPkBitError:count 	0
attr interpolationmode  none
attr source  dropPkBitError
attr title  "packets dropped/bit error, count"
scalar Topo.s4.etherMAC[1] 	droppedPkBitError:sum(packetBytes) 	0
attr interpolationmode  none
attr source  dropPkBitError
attr title  "packets dropped/bit error, sum(packetBytes)"
scalar Topo.s4.etherMAC[1] 	rxPkFromHL:count 	52
attr interpolationmode  none
attr source  rxPkFromHL
attr title  "packet bytes from higher layer, count"
scalar Topo.s4.etherMAC[1] 	rxPkFromHL:sum(packetBytes) 	3328
attr interpolationmode  none
attr source  rxPkFromHL
attr title  "packet bytes from higher layer, sum(packetBytes)"
scalar Topo.s4.etherMAC[1] 	rxPausePkUnits:count 	0
attr interpolationmode  none
attr title  "pause units received, count"
scalar Topo.s4.etherMAC[1] 	rxPausePkUnits:sum 	0
attr interpolationmode  none
attr title  "pause units received, sum"
scalar Topo.s4.etherMAC[1] 	txPausePkUnits:count 	0
attr interpolationmode  none
attr title  "pause units sent, count"
scalar Topo.s4.etherMAC[1] 	txPausePkUnits:sum 	0
attr interpolationmode  none
attr title  "pause units sent, sum"
scalar Topo.s4.etherMAC[1] 	rxPkOk:count 	56
attr interpolationmode  none
attr source  rxPkOk
attr title  "packets received OK, count"
scalar Topo.s4.etherMAC[1] 	rxPkOk:sum(packetBytes) 	3584
attr interpolationmode  none
attr source  rxPkOk
attr title  "packets received OK, sum(packetBytes)"
scalar Topo.s4.etherMAC[1] 	txPk:count 	52
attr interpolationmode  none
attr source  txPk
attr title  "packets transmitted, count"
scalar Topo.s4.etherMAC[1] 	txPk:sum(packetBytes) 	3328
attr interpolationmode  none
attr source  txPk
attr title  "packets transmitted, sum(packetBytes)"
scalar Topo.s4.etherMAC[1] 	backoff:count 	0
attr interpolationmode  none
attr title  "backoff, count"
scalar Topo.s4.etherMAC[1] 	collision:count 	0
attr interpolationmode  none
attr title  "collision, count"
scalar Topo.s4.etherMAC[1] 	passedUpPk:count 	56
attr interpolationmode  none
attr source  packetSentToUpper
attr title  "packets passed to higher layer, count"
scalar Topo.s4.etherMAC[1] 	passedUpPk:sum(packetBytes) 	3584
attr interpolationmode  none
attr source  packetSentToUpper
attr title  "packets passed to higher layer, sum(packetBytes)"
scalar Topo.s4.etherMAC[2] 	"simulated time" 	75.00000788
scalar Topo.s4.etherMAC[2] 	full-duplex 	1
scalar Topo.s4.etherMAC[2] 	"frames/sec sent" 	0
scalar Topo.s4.etherMAC[2] 	"frames/sec rcvd" 	0
scalar Topo.s4.etherMAC[2] 	"bits/sec sent" 	0
scalar Topo.s4.etherMAC[2] 	"bits/sec rcvd" 	0
scalar Topo.s4.etherMAC[2] 	"rx channel idle (%)" 	100
scalar Topo.s4.etherMAC[2] 	"rx channel utilization (%)" 	0
scalar Topo.s4.etherMAC[2] 	"rx channel collision (%)" 	0
scalar Topo.s4.etherMAC[2] 	collisions 	0
scalar Topo.s4.etherMAC[2] 	backoffs 	0
scalar Topo.s4.etherMAC[2] 	droppedPkNotForUs:count 	0
attr interpolationmode  none
attr source  dropPkNotForUs
attr title  "packets dropped/not for us, count"
scalar Topo.s4.etherMAC[2] 	droppedPkNotForUs:sum(packetBytes) 	0
attr interpolationmode  none
attr source  dropPkNotForUs
attr title  "packets dropped/not for us, sum(packetBytes)"
scalar Topo.s4.etherMAC[2] 	droppedPkIfaceDown:count 	0
attr interpolationmode  none
attr source  dropPkIfaceDown
attr title  "packets dropped/interface down, count"
scalar Topo.s4.etherMAC[2] 	droppedPkIfaceDown:sum(packetBytes) 	0
attr interpolationmode  none
attr source  dropPkIfaceDown
attr title  "packets dropped/interface down, sum(packetBytes)"
scalar Topo.s4.etherMAC[2] 	droppedPkBitError:count 	0
attr interpolationmode  none
attr source  dropPkBitError
attr title  "packets dropped/bit error, count"
scalar Topo.s4.etherMAC[2] 	droppedPkBitError:sum(packetBytes) 	0
attr interpolationmode  none
attr source  dropPkBitError
attr title  "packets dropped/bit error, sum(packetBytes)"
scalar Topo.s4.etherMAC[2] 	rxPkFromHL:count 	0
attr interpolationmode  none
attr source  rxPkFromHL
attr title  "packet bytes from higher layer, count"
scalar Topo.s4.etherMAC[2] 	rxPkFromHL:sum(packetBytes) 	0
attr interpolationmode  none
attr source  rxPkFromHL
attr title  "packet bytes from higher layer, sum(packetBytes)"
scalar Topo.s4.etherMAC[2] 	rxPausePkUnits:count 	0
attr interpolationmode  none
attr title  "pause units received, count"
scalar Topo.s4.etherMAC[2] 	rxPausePkUnits:sum 	0
attr interpolationmode  none
attr title  "pause units received, sum"
scalar Topo.s4.etherMAC[2] 	txPausePkUnits:count 	0
attr interpolationmode  none
attr title  "pause units sent, count"
scalar Topo.s4.etherMAC[2] 	txPausePkUnits:sum 	0
attr interpolationmode  none
attr title  "pause units sent, sum"
scalar Topo.s4.etherMAC[2] 	rxPkOk:count 	0
attr interpolationmode  none
attr source  rxPkOk
attr title  "packets received OK, count"
scalar Topo.s4.etherMAC[2] 	rxPkOk:sum(packetBytes) 	0
attr interpolationmode  none
attr source  rxPkOk
attr title  "packets received OK, sum(packetBytes)"
scalar Topo.s4.etherMAC[2] 	txPk:count 	0
attr interpolationmode  none
attr source  txPk
attr title  "packets transmitted, count"
scalar Topo.s4.etherMAC[2] 	txPk:sum(packetBytes) 	0
attr interpolationmode  none
attr source  txPk
attr title  "packets transmitted, sum(packetBytes)"
scalar Topo.s4.etherMAC[2] 	backoff:count 	0
attr interpolationmode  none
attr title  "backoff, count"
scalar Topo.s4.etherMAC[2] 	collision:count 	0
attr interpolationmode  none
attr title  "collision, count"
scalar Topo.s4.etherMAC[2] 	passedUpPk:count 	0
attr interpolationmode  none
attr source  packetSentToUpper
attr title  "packets passed to higher layer, count"
scalar Topo.s4.etherMAC[2] 	passedUpPk:sum(packetBytes) 	0
attr interpolationmode  none
attr source  packetSentToUpper
attr title  "packets passed to higher layer, sum(packetBytes)"
scalar Topo.s4.open_Flow_Processing 	droppedPkt:last 	-nan
attr source  droppedPkt
scalar Topo.s5.networkLayer.arp 	failedARPResolution:count 	0
attr title  "ARP failed resolutions, count"
scalar Topo.s5.networkLayer.arp 	completedARPResolution:count 	1
attr title  "ARP completed resolutions, count"
scalar Topo.s5.networkLayer.arp 	initiatedARPResolution:count 	1
attr title  "ARP initiated resolutions, count"
scalar Topo.s5.networkLayer.arp 	sentReply:count 	0
attr title  "ARP replies sent, count"
scalar Topo.s5.networkLayer.arp 	sentReq:count 	1
attr title  "ARP request sent, count"
scalar Topo.s5.eth[0].mac 	"simulated time" 	75.00000788
scalar Topo.s5.eth[0].mac 	full-duplex 	1
scalar Topo.s5.eth[0].mac 	"frames/sec sent" 	0.119999987392
scalar Topo.s5.eth[0].mac 	"frames/sec rcvd" 	0.10666665545956
scalar Topo.s5.eth[0].mac 	"bits/sec sent" 	61.439993544705
scalar Topo.s5.eth[0].mac 	"bits/sec rcvd" 	54.613327595293
scalar Topo.s5.eth[0].mac 	"rx channel idle (%)" 	99.999993856001
scalar Topo.s5.eth[0].mac 	"rx channel utilization (%)" 	6.1439993544705e-06
scalar Topo.s5.eth[0].mac 	droppedPkNotForUs:count 	0
attr interpolationmode  none
attr source  dropPkNotForUs
attr title  "packets dropped/not for us, count"
scalar Topo.s5.eth[0].mac 	droppedPkNotForUs:sum(packetBytes) 	0
attr interpolationmode  none
attr source  dropPkNotForUs
attr title  "packets dropped/not for us, sum(packetBytes)"
scalar Topo.s5.eth[0].mac 	droppedPkIfaceDown:count 	0
attr interpolationmode  none
attr source  dropPkIfaceDown
attr title  "packets dropped/interface down, count"
scalar Topo.s5.eth[0].mac 	droppedPkIfaceDown:sum(packetBytes) 	0
attr interpolationmode  none
attr source  dropPkIfaceDown
attr title  "packets dropped/interface down, sum(packetBytes)"
scalar Topo.s5.eth[0].mac 	droppedPkBitError:count 	0
attr interpolationmode  none
attr source  dropPkBitError
attr title  "packets dropped/bit error, count"
scalar Topo.s5.eth[0].mac 	droppedPkBitError:sum(packetBytes) 	0
attr interpolationmode  none
attr source  dropPkBitError
attr title  "packets dropped/bit error, sum(packetBytes)"
scalar Topo.s5.eth[0].mac 	rxPkFromHL:count 	9
attr interpolationmode  none
attr source  rxPkFromHL
attr title  "packet bytes from higher layer, count"
scalar Topo.s5.eth[0].mac 	rxPkFromHL:sum(packetBytes) 	576
attr interpolationmode  none
attr source  rxPkFromHL
attr title  "packet bytes from higher layer, sum(packetBytes)"
scalar Topo.s5.eth[0].mac 	rxPausePkUnits:count 	0
attr interpolationmode  none
attr title  "pause units received, count"
scalar Topo.s5.eth[0].mac 	rxPausePkUnits:sum 	0
attr interpolationmode  none
attr title  "pause units received, sum"
scalar Topo.s5.eth[0].mac 	txPausePkUnits:count 	0
attr interpolationmode  none
attr title  "pause units sent, count"
scalar Topo.s5.eth[0].mac 	txPausePkUnits:sum 	0
attr interpolationmode  none
attr title  "pause units sent, sum"
scalar Topo.s5.eth[0].mac 	rxPkOk:count 	8
attr interpolationmode  none
attr source  rxPkOk
attr title  "packets received OK, count"
scalar Topo.s5.eth[0].mac 	rxPkOk:sum(packetBytes) 	512
attr interpolationmode  none
attr source  rxPkOk
attr title  "packets received OK, sum(packetBytes)"
scalar Topo.s5.eth[0].mac 	txPk:count 	9
attr interpolationmode  none
attr source  txPk
attr title  "packets transmitted, count"
scalar Topo.s5.eth[0].mac 	txPk:sum(packetBytes) 	576
attr interpolationmode  none
attr source  txPk
attr title  "packets transmitted, sum(packetBytes)"
scalar Topo.s5.eth[0].mac 	passedUpPk:count 	8
attr interpolationmode  none
attr source  packetSentToUpper
attr title  "packets passed to higher layer, count"
scalar Topo.s5.eth[0].mac 	passedUpPk:sum(packetBytes) 	512
attr interpolationmode  none
attr source  packetSentToUpper
attr title  "packets passed to higher layer, sum(packetBytes)"
scalar Topo.s5.eth[0].encap 	pauseSent:count 	0
attr title  "pause sent, count"
scalar Topo.s5.eth[0].encap 	pauseSent:sum 	0
attr title  "pause sent, sum"
scalar Topo.s5.eth[0].encap 	decapPk:count 	8
attr interpolationmode  none
attr source  decapPk
attr title  "packets decapsulated, count"
scalar Topo.s5.eth[0].encap 	decapPk:sum(packetBytes) 	317
attr interpolationmode  none
attr source  decapPk
attr title  "packets decapsulated, sum(packetBytes)"
scalar Topo.s5.eth[0].encap 	encapPk:count 	9
attr interpolationmode  none
attr source  encapPk
attr title  "packets encapsulated, count"
scalar Topo.s5.eth[0].encap 	encapPk:sum(packetBytes) 	353
attr interpolationmode  none
attr source  encapPk
attr title  "packets encapsulated, sum(packetBytes)"
scalar Topo.s5.etherMAC[0] 	"simulated time" 	75.00000788
scalar Topo.s5.etherMAC[0] 	full-duplex 	1
scalar Topo.s5.etherMAC[0] 	"frames/sec sent" 	0.7466665882169
scalar Topo.s5.etherMAC[0] 	"frames/sec rcvd" 	0.69333326048712
scalar Topo.s5.etherMAC[0] 	"bits/sec sent" 	382.29329316705
scalar Topo.s5.etherMAC[0] 	"bits/sec rcvd" 	354.9866293694
scalar Topo.s5.etherMAC[0] 	"rx channel idle (%)" 	99.999960064004
scalar Topo.s5.etherMAC[0] 	"rx channel utilization (%)" 	3.9935995804058e-05
scalar Topo.s5.etherMAC[0] 	"rx channel collision (%)" 	0
scalar Topo.s5.etherMAC[0] 	collisions 	0
scalar Topo.s5.etherMAC[0] 	backoffs 	0
scalar Topo.s5.etherMAC[0] 	droppedPkNotForUs:count 	0
attr interpolationmode  none
attr source  dropPkNotForUs
attr title  "packets dropped/not for us, count"
scalar Topo.s5.etherMAC[0] 	droppedPkNotForUs:sum(packetBytes) 	0
attr interpolationmode  none
attr source  dropPkNotForUs
attr title  "packets dropped/not for us, sum(packetBytes)"
scalar Topo.s5.etherMAC[0] 	droppedPkIfaceDown:count 	0
attr interpolationmode  none
attr source  dropPkIfaceDown
attr title  "packets dropped/interface down, count"
scalar Topo.s5.etherMAC[0] 	droppedPkIfaceDown:sum(packetBytes) 	0
attr interpolationmode  none
attr source  dropPkIfaceDown
attr title  "packets dropped/interface down, sum(packetBytes)"
scalar Topo.s5.etherMAC[0] 	droppedPkBitError:count 	0
attr interpolationmode  none
attr source  dropPkBitError
attr title  "packets dropped/bit error, count"
scalar Topo.s5.etherMAC[0] 	droppedPkBitError:sum(packetBytes) 	0
attr interpolationmode  none
attr source  dropPkBitError
attr title  "packets dropped/bit error, sum(packetBytes)"
scalar Topo.s5.etherMAC[0] 	rxPkFromHL:count 	56
attr interpolationmode  none
attr source  rxPkFromHL
attr title  "packet bytes from higher layer, count"
scalar Topo.s5.etherMAC[0] 	rxPkFromHL:sum(packetBytes) 	3584
attr interpolationmode  none
attr source  rxPkFromHL
attr title  "packet bytes from higher layer, sum(packetBytes)"
scalar Topo.s5.etherMAC[0] 	rxPausePkUnits:count 	0
attr interpolationmode  none
attr title  "pause units received, count"
scalar Topo.s5.etherMAC[0] 	rxPausePkUnits:sum 	0
attr interpolationmode  none
attr title  "pause units received, sum"
scalar Topo.s5.etherMAC[0] 	txPausePkUnits:count 	0
attr interpolationmode  none
attr title  "pause units sent, count"
scalar Topo.s5.etherMAC[0] 	txPausePkUnits:sum 	0
attr interpolationmode  none
attr title  "pause units sent, sum"
scalar Topo.s5.etherMAC[0] 	rxPkOk:count 	52
attr interpolationmode  none
attr source  rxPkOk
attr title  "packets received OK, count"
scalar Topo.s5.etherMAC[0] 	rxPkOk:sum(packetBytes) 	3328
attr interpolationmode  none
attr source  rxPkOk
attr title  "packets received OK, sum(packetBytes)"
scalar Topo.s5.etherMAC[0] 	txPk:count 	56
attr interpolationmode  none
attr source  txPk
attr title  "packets transmitted, count"
scalar Topo.s5.etherMAC[0] 	txPk:sum(packetBytes) 	3584
attr interpolationmode  none
attr source  txPk
attr title  "packets transmitted, sum(packetBytes)"
scalar Topo.s5.etherMAC[0] 	backoff:count 	0
attr interpolationmode  none
attr title  "backoff, count"
scalar Topo.s5.etherMAC[0] 	collision:count 	0
attr interpolationmode  none
attr title  "collision, count"
scalar Topo.s5.etherMAC[0] 	passedUpPk:count 	52
attr interpolationmode  none
attr source  packetSentToUpper
attr title  "packets passed to higher layer, count"
scalar Topo.s5.etherMAC[0] 	passedUpPk:sum(packetBytes) 	3328
attr interpolationmode  none
attr source  packetSentToUpper
attr title  "packets passed to higher layer, sum(packetBytes)"
scalar Topo.s5.etherMAC[1] 	"simulated time" 	75.00000788
scalar Topo.s5.etherMAC[1] 	full-duplex 	1
scalar Topo.s5.etherMAC[1] 	"frames/sec sent" 	0.69333326048712
scalar Topo.s5.etherMAC[1] 	"frames/sec rcvd" 	0.7466665882169
scalar Topo.s5.etherMAC[1] 	"bits/sec sent" 	354.9866293694
scalar Topo.s5.etherMAC[1] 	"bits/sec rcvd" 	382.29329316705
scalar Topo.s5.etherMAC[1] 	"rx channel idle (%)" 	99.999956992005
scalar Topo.s5.etherMAC[1] 	"rx channel utilization (%)" 	4.3007995481293e-05
scalar Topo.s5.etherMAC[1] 	"rx channel collision (%)" 	0
scalar Topo.s5.etherMAC[1] 	collisions 	0
scalar Topo.s5.etherMAC[1] 	backoffs 	0
scalar Topo.s5.etherMAC[1] 	droppedPkNotForUs:count 	0
attr interpolationmode  none
attr source  dropPkNotForUs
attr title  "packets dropped/not for us, count"
scalar Topo.s5.etherMAC[1] 	droppedPkNotForUs:sum(packetBytes) 	0
attr interpolationmode  none
attr source  dropPkNotForUs
attr title  "packets dropped/not for us, sum(packetBytes)"
scalar Topo.s5.etherMAC[1] 	droppedPkIfaceDown:count 	0
attr interpolationmode  none
attr source  dropPkIfaceDown
attr title  "packets dropped/interface down, count"
scalar Topo.s5.etherMAC[1] 	droppedPkIfaceDown:sum(packetBytes) 	0
attr interpolationmode  none
attr source  dropPkIfaceDown
attr title  "packets dropped/interface down, sum(packetBytes)"
scalar Topo.s5.etherMAC[1] 	droppedPkBitError:count 	0
attr interpolationmode  none
attr source  dropPkBitError
attr title  "packets dropped/bit error, count"
scalar Topo.s5.etherMAC[1] 	droppedPkBitError:sum(packetBytes) 	0
attr interpolationmode  none
attr source  dropPkBitError
attr title  "packets dropped/bit error, sum(packetBytes)"
scalar Topo.s5.etherMAC[1] 	rxPkFromHL:count 	52
attr interpolationmode  none
attr source  rxPkFromHL
attr title  "packet bytes from higher layer, count"
scalar Topo.s5.etherMAC[1] 	rxPkFromHL:sum(packetBytes) 	3328
attr interpolationmode  none
attr source  rxPkFromHL
attr title  "packet bytes from higher layer, sum(packetBytes)"
scalar Topo.s5.etherMAC[1] 	rxPausePkUnits:count 	0
attr interpolationmode  none
attr title  "pause units received, count"
scalar Topo.s5.etherMAC[1] 	rxPausePkUnits:sum 	0
attr interpolationmode  none
attr title  "pause units received, sum"
scalar Topo.s5.etherMAC[1] 	txPausePkUnits:count 	0
attr interpolationmode  none
attr title  "pause units sent, count"
scalar Topo.s5.etherMAC[1] 	txPausePkUnits:sum 	0
attr interpolationmode  none
attr title  "pause units sent, sum"
scalar Topo.s5.etherMAC[1] 	rxPkOk:count 	56
attr interpolationmode  none
attr source  rxPkOk
attr title  "packets received OK, count"
scalar Topo.s5.etherMAC[1] 	rxPkOk:sum(packetBytes) 	3584
attr interpolationmode  none
attr source  rxPkOk
attr title  "packets received OK, sum(packetBytes)"
scalar Topo.s5.etherMAC[1] 	txPk:count 	52
attr interpolationmode  none
attr source  txPk
attr title  "packets transmitted, count"
scalar Topo.s5.etherMAC[1] 	txPk:sum(packetBytes) 	3328
attr interpolationmode  none
attr source  txPk
attr title  "packets transmitted, sum(packetBytes)"
scalar Topo.s5.etherMAC[1] 	backoff:count 	0
attr interpolationmode  none
attr title  "backoff, count"
scalar Topo.s5.etherMAC[1] 	collision:count 	0
attr interpolationmode  none
attr title  "collision, count"
scalar Topo.s5.etherMAC[1] 	passedUpPk:count 	56
attr interpolationmode  none
attr source  packetSentToUpper
attr title  "packets passed to higher layer, count"
scalar Topo.s5.etherMAC[1] 	passedUpPk:sum(packetBytes) 	3584
attr interpolationmode  none
attr source  packetSentToUpper
attr title  "packets passed to higher layer, sum(packetBytes)"
scalar Topo.s5.etherMAC[2] 	"simulated time" 	75.00000788
scalar Topo.s5.etherMAC[2] 	full-duplex 	1
scalar Topo.s5.etherMAC[2] 	"frames/sec sent" 	0
scalar Topo.s5.etherMAC[2] 	"frames/sec rcvd" 	0
scalar Topo.s5.etherMAC[2] 	"bits/sec sent" 	0
scalar Topo.s5.etherMAC[2] 	"bits/sec rcvd" 	0
scalar Topo.s5.etherMAC[2] 	"rx channel idle (%)" 	100
scalar Topo.s5.etherMAC[2] 	"rx channel utilization (%)" 	0
scalar Topo.s5.etherMAC[2] 	"rx channel collision (%)" 	0
scalar Topo.s5.etherMAC[2] 	collisions 	0
scalar Topo.s5.etherMAC[2] 	backoffs 	0
scalar Topo.s5.etherMAC[2] 	droppedPkNotForUs:count 	0
attr interpolationmode  none
attr source  dropPkNotForUs
attr title  "packets dropped/not for us, count"
scalar Topo.s5.etherMAC[2] 	droppedPkNotForUs:sum(packetBytes) 	0
attr interpolationmode  none
attr source  dropPkNotForUs
attr title  "packets dropped/not for us, sum(packetBytes)"
scalar Topo.s5.etherMAC[2] 	droppedPkIfaceDown:count 	0
attr interpolationmode  none
attr source  dropPkIfaceDown
attr title  "packets dropped/interface down, count"
scalar Topo.s5.etherMAC[2] 	droppedPkIfaceDown:sum(packetBytes) 	0
attr interpolationmode  none
attr source  dropPkIfaceDown
attr title  "packets dropped/interface down, sum(packetBytes)"
scalar Topo.s5.etherMAC[2] 	droppedPkBitError:count 	0
attr interpolationmode  none
attr source  dropPkBitError
attr title  "packets dropped/bit error, count"
scalar Topo.s5.etherMAC[2] 	droppedPkBitError:sum(packetBytes) 	0
attr interpolationmode  none
attr source  dropPkBitError
attr title  "packets dropped/bit error, sum(packetBytes)"
scalar Topo.s5.etherMAC[2] 	rxPkFromHL:count 	0
attr interpolationmode  none
attr source  rxPkFromHL
attr title  "packet bytes from higher layer, count"
scalar Topo.s5.etherMAC[2] 	rxPkFromHL:sum(packetBytes) 	0
attr interpolationmode  none
attr source  rxPkFromHL
attr title  "packet bytes from higher layer, sum(packetBytes)"
scalar Topo.s5.etherMAC[2] 	rxPausePkUnits:count 	0
attr interpolationmode  none
attr title  "pause units received, count"
scalar Topo.s5.etherMAC[2] 	rxPausePkUnits:sum 	0
attr interpolationmode  none
attr title  "pause units received, sum"
scalar Topo.s5.etherMAC[2] 	txPausePkUnits:count 	0
attr interpolationmode  none
attr title  "pause units sent, count"
scalar Topo.s5.etherMAC[2] 	txPausePkUnits:sum 	0
attr interpolationmode  none
attr title  "pause units sent, sum"
scalar Topo.s5.etherMAC[2] 	rxPkOk:count 	0
attr interpolationmode  none
attr source  rxPkOk
attr title  "packets received OK, count"
scalar Topo.s5.etherMAC[2] 	rxPkOk:sum(packetBytes) 	0
attr interpolationmode  none
attr source  rxPkOk
attr title  "packets received OK, sum(packetBytes)"
scalar Topo.s5.etherMAC[2] 	txPk:count 	0
attr interpolationmode  none
attr source  txPk
attr title  "packets transmitted, count"
scalar Topo.s5.etherMAC[2] 	txPk:sum(packetBytes) 	0
attr interpolationmode  none
attr source  txPk
attr title  "packets transmitted, sum(packetBytes)"
scalar Topo.s5.etherMAC[2] 	backoff:count 	0
attr interpolationmode  none
attr title  "backoff, count"
scalar Topo.s5.etherMAC[2] 	collision:count 	0
attr interpolationmode  none
attr title  "collision, count"
scalar Topo.s5.etherMAC[2] 	passedUpPk:count 	0
attr interpolationmode  none
attr source  packetSentToUpper
attr title  "packets passed to higher layer, count"
scalar Topo.s5.etherMAC[2] 	passedUpPk:sum(packetBytes) 	0
attr interpolationmode  none
attr source  packetSentToUpper
attr title  "packets passed to higher layer, sum(packetBytes)"
scalar Topo.s5.open_Flow_Processing 	droppedPkt:last 	-nan
attr source  droppedPkt
scalar Topo.s6.networkLayer.arp 	failedARPResolution:count 	0
attr title  "ARP failed resolutions, count"
scalar Topo.s6.networkLayer.arp 	completedARPResolution:count 	1
attr title  "ARP completed resolutions, count"
scalar Topo.s6.networkLayer.arp 	initiatedARPResolution:count 	1
attr title  "ARP initiated resolutions, count"
scalar Topo.s6.networkLayer.arp 	sentReply:count 	0
attr title  "ARP replies sent, count"
scalar Topo.s6.networkLayer.arp 	sentReq:count 	1
attr title  "ARP request sent, count"
scalar Topo.s6.eth[0].mac 	"simulated time" 	75.00000788
scalar Topo.s6.eth[0].mac 	full-duplex 	1
scalar Topo.s6.eth[0].mac 	"frames/sec sent" 	0.15999998318934
scalar Topo.s6.eth[0].mac 	"frames/sec rcvd" 	0.15999998318934
scalar Topo.s6.eth[0].mac 	"bits/sec sent" 	107.73332201415
scalar Topo.s6.eth[0].mac 	"bits/sec rcvd" 	108.47998860237
scalar Topo.s6.eth[0].mac 	"rx channel idle (%)" 	99.999988128001
scalar Topo.s6.eth[0].mac 	"rx channel utilization (%)" 	1.1871998752649e-05
scalar Topo.s6.eth[0].mac 	droppedPkNotForUs:count 	0
attr interpolationmode  none
attr source  dropPkNotForUs
attr title  "packets dropped/not for us, count"
scalar Topo.s6.eth[0].mac 	droppedPkNotForUs:sum(packetBytes) 	0
attr interpolationmode  none
attr source  dropPkNotForUs
attr title  "packets dropped/not for us, sum(packetBytes)"
scalar Topo.s6.eth[0].mac 	droppedPkIfaceDown:count 	0
attr interpolationmode  none
attr source  dropPkIfaceDown
attr title  "packets dropped/interface down, count"
scalar Topo.s6.eth[0].mac 	droppedPkIfaceDown:sum(packetBytes) 	0
attr interpolationmode  none
attr source  dropPkIfaceDown
attr title  "packets dropped/interface down, sum(packetBytes)"
scalar Topo.s6.eth[0].mac 	droppedPkBitError:count 	0
attr interpolationmode  none
attr source  dropPkBitError
attr title  "packets dropped/bit error, count"
scalar Topo.s6.eth[0].mac 	droppedPkBitError:sum(packetBytes) 	0
attr interpolationmode  none
attr source  dropPkBitError
attr title  "packets dropped/bit error, sum(packetBytes)"
scalar Topo.s6.eth[0].mac 	rxPkFromHL:count 	12
attr interpolationmode  none
attr source  rxPkFromHL
attr title  "packet bytes from higher layer, count"
scalar Topo.s6.eth[0].mac 	rxPkFromHL:sum(packetBytes) 	1010
attr interpolationmode  none
attr source  rxPkFromHL
attr title  "packet bytes from higher layer, sum(packetBytes)"
scalar Topo.s6.eth[0].mac 	rxPausePkUnits:count 	0
attr interpolationmode  none
attr title  "pause units received, count"
scalar Topo.s6.eth[0].mac 	rxPausePkUnits:sum 	0
attr interpolationmode  none
attr title  "pause units received, sum"
scalar Topo.s6.eth[0].mac 	txPausePkUnits:count 	0
attr interpolationmode  none
attr title  "pause units sent, count"
scalar Topo.s6.eth[0].mac 	txPausePkUnits:sum 	0
attr interpolationmode  none
attr title  "pause units sent, sum"
scalar Topo.s6.eth[0].mac 	rxPkOk:count 	12
attr interpolationmode  none
attr source  rxPkOk
[...]
attr interpolationmode  none
attr source  packetSentToUpper
attr title  "packets passed to higher layer, sum(packetBytes)"
scalar Topo.RTU2.eth[0].mac 	"simulated time" 	75.00000788
scalar Topo.RTU2.eth[0].mac 	full-duplex 	1
scalar Topo.RTU2.eth[0].mac 	"frames/sec sent" 	0.38666662604089
scalar Topo.RTU2.eth[0].mac 	"frames/sec rcvd" 	0.359999962176
scalar Topo.RTU2.eth[0].mac 	"bits/sec sent" 	197.97331253294
scalar Topo.RTU2.eth[0].mac 	"bits/sec rcvd" 	184.31998063411
scalar Topo.RTU2.eth[0].mac 	"rx channel idle (%)" 	99.999979264002
scalar Topo.RTU2.eth[0].mac 	"rx channel utilization (%)" 	2.0735997821338e-05
scalar Topo.RTU2.eth[0].mac 	droppedPkNotForUs:count 	0
attr interpolationmode  none
attr source  dropPkNotForUs
attr title  "packets dropped/not for us, count"
scalar Topo.RTU2.eth[0].mac 	droppedPkNotForUs:sum(packetBytes) 	0
attr interpolationmode  none
attr source  dropPkNotForUs
attr title  "packets dropped/not for us, sum(packetBytes)"
scalar Topo.RTU2.eth[0].mac 	droppedPkIfaceDown:count 	0
attr interpolationmode  none
attr source  dropPkIfaceDown
attr title  "packets dropped/interface down, count"
scalar Topo.RTU2.eth[0].mac 	droppedPkIfaceDown:sum(packetBytes) 	0
attr interpolationmode  none
attr source  dropPkIfaceDown
attr title  "packets dropped/interface down, sum(packetBytes)"
scalar Topo.RTU2.eth[0].mac 	droppedPkBitError:count 	0
attr interpolationmode  none
attr source  dropPkBitError
attr title  "packets dropped/bit error, count"
scalar Topo.RTU2.eth[0].mac 	droppedPkBitError:sum(packetBytes) 	0
attr interpolationmode  none
attr source  dropPkBitError
attr title  "packets dropped/bit error, sum(packetBytes)"
scalar Topo.RTU2.eth[0].mac 	rxPkFromHL:count 	29
attr interpolationmode  none
attr source  rxPkFromHL
attr title  "packet bytes from higher layer, count"
scalar Topo.RTU2.eth[0].mac 	rxPkFromHL:sum(packetBytes) 	1856
attr interpolationmode  none
attr source  rxPkFromHL
attr title  "packet bytes from higher layer, sum(packetBytes)"
scalar Topo.RTU2.eth[0].mac 	rxPausePkUnits:count 	0
attr interpolationmode  none
attr title  "pause units received, count"
scalar Topo.RTU2.eth[0].mac 	rxPausePkUnits:sum 	0
attr interpolationmode  none
attr title  "pause units received, sum"
scalar Topo.RTU2.eth[0].mac 	txPausePkUnits:count 	0
attr interpolationmode  none
attr title  "pause units sent, count"
scalar Topo.RTU2.eth[0].mac 	txPausePkUnits:sum 	0
attr interpolationmode  none
attr title  "pause units sent, sum"
scalar Topo.RTU2.eth[0].mac 	rxPkOk:count 	27
attr interpolationmode  none
attr source  rxPkOk
attr title  "packets received OK, count"
scalar Topo.RTU2.eth[0].mac 	rxPkOk:sum(packetBytes) 	1728
attr interpolationmode  none
attr source  rxPkOk
attr title  "packets received OK, sum(packetBytes)"
scalar Topo.RTU2.eth[0].mac 	txPk:count 	29
attr interpolationmode  none
attr source  txPk
attr title  "packets transmitted, count"
scalar Topo.RTU2.eth[0].mac 	txPk:sum(packetBytes) 	1856
attr interpolationmode  none
attr source  txPk
attr title  "packets transmitted, sum(packetBytes)"
scalar Topo.RTU2.eth[0].mac 	passedUpPk:count 	27
attr interpolationmode  none
attr source  packetSentToUpper
attr title  "packets passed to higher layer, count"
scalar Topo.RTU2.eth[0].mac 	passedUpPk:sum(packetBytes) 	1728
attr interpolationmode  none
attr source  packetSentToUpper
attr title  "packets passed to higher layer, sum(packetBytes)"
scalar Topo.RTU2.eth[0].encap 	pauseSent:count 	0
attr title  "pause sent, count"
scalar Topo.RTU2.eth[0].encap 	pauseSent:sum 	0
attr title  "pause sent, sum"
scalar Topo.RTU2.eth[0].encap 	decapPk:count 	27
attr interpolationmode  none
attr source  decapPk
attr title  "packets decapsulated, count"
scalar Topo.RTU2.eth[0].encap 	decapPk:sum(packetBytes) 	1073
attr interpolationmode  none
attr source  decapPk
attr title  "packets decapsulated, sum(packetBytes)"
scalar Topo.RTU2.eth[0].encap 	encapPk:count 	29
attr interpolationmode  none
attr source  encapPk
attr title  "packets encapsulated, count"
scalar Topo.RTU2.eth[0].encap 	encapPk:sum(packetBytes) 	1177
attr interpolationmode  none
attr source  encapPk
attr title  "packets encapsulated, sum(packetBytes)"
scalar Topo.RTU2.rtu 	rcvdPk:count 	1
attr interpolationmode  none
attr source  rcvdPk
attr title  "packets received, count"
scalar Topo.RTU2.rtu 	rcvdPk:sum(packetBytes) 	1
attr interpolationmode  none
attr source  rcvdPk
attr title  "packets received, sum(packetBytes)"
statistic Topo.RTU2.rtu 	endToEndDelay:histogram
field count 1
field mean 7.88e-06
field stddev -nan
field sum 7.88e-06
field sqrsum 6.20944e-11
field min 7.88e-06
field max 7.88e-06
attr interpolationmode  none
attr source  messageAge(rcvdPk)
attr title  "end-to-end delay, histogram"
attr unit  s
bin	-INF	0
bin	-0.49999212	0
bin	-0.46665878666667	0
bin	-0.43332545333333	0
bin	-0.39999212	0
bin	-0.36665878666667	0
bin	-0.33332545333333	0
bin	-0.29999212	0
bin	-0.26665878666667	0
bin	-0.23332545333333	0
bin	-0.19999212	0
bin	-0.16665878666667	0
bin	-0.13332545333333	0
bin	-0.09999212	0
bin	-0.066658786666667	0
bin	-0.033325453333333	0
bin	7.8800000000157e-06	1
bin	0.033341213333333	0
bin	0.066674546666667	0
bin	0.10000788	0
bin	0.13334121333333	0
bin	0.16667454666667	0
bin	0.20000788	0
bin	0.23334121333333	0
bin	0.26667454666667	0
bin	0.30000788	0
bin	0.33334121333333	0
bin	0.36667454666667	0
bin	0.40000788	0
bin	0.43334121333333	0
bin	0.46667454666667	0
bin	0.50000788	0
scalar Topo.RTU2.rtu 	sentPk:count 	25
attr interpolationmode  none
attr source  sentPk
attr title  "packets sent, count"
scalar Topo.RTU2.rtu 	sentPk:sum(packetBytes) 	25
attr interpolationmode  none
attr source  sentPk
attr title  "packets sent, sum(packetBytes)"
scalar Topo.RTU3.networkLayer.arp 	failedARPResolution:count 	0
attr title  "ARP failed resolutions, count"
scalar Topo.RTU3.networkLayer.arp 	completedARPResolution:count 	1
attr title  "ARP completed resolutions, count"
scalar Topo.RTU3.networkLayer.arp 	initiatedARPResolution:count 	1
attr title  "ARP initiated resolutions, count"
scalar Topo.RTU3.networkLayer.arp 	sentReply:count 	0
attr title  "ARP replies sent, count"
scalar Topo.RTU3.networkLayer.arp 	sentReq:count 	1
attr title  "ARP request sent, count"
scalar Topo.RTU3.lo0.lo 	droppedPkBitError:count 	0
attr interpolationmode  none
attr source  dropPkBitError
attr title  "packets dropped/bit error, count"
scalar Topo.RTU3.lo0.lo 	droppedPkBitError:sum(packetBytes) 	0
attr interpolationmode  none
attr source  dropPkBitError
attr title  "packets dropped/bit error, sum(packetBytes)"
scalar Topo.RTU3.lo0.lo 	rcvdPkFromHL:count 	0
attr interpolationmode  none
attr source  packetReceivedFromUpper
attr title  "packets received from higher layer, count"
scalar Topo.RTU3.lo0.lo 	rcvdPkFromHL:sum(packetBytes) 	0
attr interpolationmode  none
attr source  packetReceivedFromUpper
attr title  "packets received from higher layer, sum(packetBytes)"
scalar Topo.RTU3.lo0.lo 	passedUpPk:count 	0
attr interpolationmode  none
attr source  packetSentToUpper
attr title  "packets passed to higher layer, count"
scalar Topo.RTU3.lo0.lo 	passedUpPk:sum(packetBytes) 	0
attr interpolationmode  none
attr source  packetSentToUpper
attr title  "packets passed to higher layer, sum(packetBytes)"
scalar Topo.RTU3.eth[0].mac 	"simulated time" 	75.00000788
scalar Topo.RTU3.eth[0].mac 	full-duplex 	1
scalar Topo.RTU3.eth[0].mac 	"frames/sec sent" 	0.38666662604089
scalar Topo.RTU3.eth[0].mac 	"frames/sec rcvd" 	0.359999962176
scalar Topo.RTU3.eth[0].mac 	"bits/sec sent" 	197.97331253294
scalar Topo.RTU3.eth[0].mac 	"bits/sec rcvd" 	184.31998063411
scalar Topo.RTU3.eth[0].mac 	"rx channel idle (%)" 	99.999979264002
scalar Topo.RTU3.eth[0].mac 	"rx channel utilization (%)" 	2.0735997821338e-05
scalar Topo.RTU3.eth[0].mac 	droppedPkNotForUs:count 	0
attr interpolationmode  none
attr source  dropPkNotForUs
attr title  "packets dropped/not for us, count"
scalar Topo.RTU3.eth[0].mac 	droppedPkNotForUs:sum(packetBytes) 	0
attr interpolationmode  none
attr source  dropPkNotForUs
attr title  "packets dropped/not for us, sum(packetBytes)"
scalar Topo.RTU3.eth[0].mac 	droppedPkIfaceDown:count 	0
attr interpolationmode  none
attr source  dropPkIfaceDown
attr title  "packets dropped/interface down, count"
scalar Topo.RTU3.eth[0].mac 	droppedPkIfaceDown:sum(packetBytes) 	0
attr interpolationmode  none
attr source  dropPkIfaceDown
attr title  "packets dropped/interface down, sum(packetBytes)"
scalar Topo.RTU3.eth[0].mac 	droppedPkBitError:count 	0
attr interpolationmode  none
attr source  dropPkBitError
attr title  "packets dropped/bit error, count"
scalar Topo.RTU3.eth[0].mac 	droppedPkBitError:sum(packetBytes) 	0
attr interpolationmode  none
attr source  dropPkBitError
attr title  "packets dropped/bit error, sum(packetBytes)"
scalar Topo.RTU3.eth[0].mac 	rxPkFromHL:count 	29
attr interpolationmode  none
attr source  rxPkFromHL
attr title  "packet bytes from higher layer, count"
scalar Topo.RTU3.eth[0].mac 	rxPkFromHL:sum(packetBytes) 	1856
attr interpolationmode  none
attr source  rxPkFromHL
attr title  "packet bytes from higher layer, sum(packetBytes)"
scalar Topo.RTU3.eth[0].mac 	rxPausePkUnits:count 	0
attr interpolationmode  none
attr title  "pause units received, count"
scalar Topo.RTU3.eth[0].mac 	rxPausePkUnits:sum 	0
attr interpolationmode  none
attr title  "pause units received, sum"
scalar Topo.RTU3.eth[0].mac 	txPausePkUnits:count 	0
attr interpolationmode  none
attr title  "pause units sent, count"
scalar Topo.RTU3.eth[0].mac 	txPausePkUnits:sum 	0
attr interpolationmode  none
attr title  "pause units sent, sum"
scalar Topo.RTU3.eth[0].mac 	rxPkOk:count 	27
attr interpolationmode  none
attr source  rxPkOk
attr title  "packets received OK, count"
scalar Topo.RTU3.eth[0].mac 	rxPkOk:sum(packetBytes) 	1728
attr interpolationmode  none
attr source  rxPkOk
attr title  "packets received OK, sum(packetBytes)"
scalar Topo.RTU3.eth[0].mac 	txPk:count 	29
attr interpolationmode  none
attr source  txPk
attr title  "packets transmitted, count"
scalar Topo.RTU3.eth[0].mac 	txPk:sum(packetBytes) 	1856
attr interpolationmode  none
attr source  txPk
attr title  "packets transmitted, sum(packetBytes)"
scalar Topo.RTU3.eth[0].mac 	passedUpPk:count 	27
attr interpolationmode  none
attr source  packetSentToUpper
attr title  "packets passed to higher layer, count"
scalar Topo.RTU3.eth[0].mac 	passedUpPk:sum(packetBytes) 	1728
attr interpolationmode  none
attr source  packetSentToUpper
attr title  "packets passed to higher layer, sum(packetBytes)"
scalar Topo.RTU3.eth[0].encap 	pauseSent:count 	0
attr title  "pause sent, count"
scalar Topo.RTU3.eth[0].encap 	pauseSent:sum 	0
attr title  "pause sent, sum"
scalar Topo.RTU3.eth[0].encap 	decapPk:count 	27
attr interpolationmode  none
attr source  decapPk
attr title  "packets decapsulated, count"
scalar Topo.RTU3.eth[0].encap 	decapPk:sum(packetBytes) 	1073
attr interpolationmode  none
attr source  decapPk
attr title  "packets decapsulated, sum(packetBytes)"
scalar Topo.RTU3.eth[0].encap 	encapPk:count 	29
attr interpolationmode  none
attr source  encapPk
attr title  "packets encapsulated, count"
scalar Topo.RTU3.eth[0].encap 	encapPk:sum(packetBytes) 	1177
attr interpolationmode  none
attr source  encapPk
attr title  "packets encapsulated, sum(packetBytes)"
scalar Topo.RTU3.rtu 	rcvdPk:count 	1
attr interpolationmode  none
attr source  rcvdPk
attr title  "packets received, count"
scalar Topo.RTU3.rtu 	rcvdPk:sum(packetBytes) 	1
attr interpolationmode  none
attr source  rcvdPk
attr title  "packets received, sum(packetBytes)"
statistic Topo.RTU3.rtu 	endToEndDelay:histogram
field count 1
field mean 7.88e-06
field stddev -nan
field sum 7.88e-06
field sqrsum 6.20944e-11
field min 7.88e-06
field max 7.88e-06
attr interpolationmode  none
attr source  messageAge(rcvdPk)
attr title  "end-to-end delay, histogram"
attr unit  s
bin	-INF	0
bin	-0.49999212	0
bin	-0.46665878666667	0
bin	-0.43332545333333	0
bin	-0.39999212	0
bin	-0.36665878666667	0
bin	-0.33332545333333	0
bin	-0.29999212	0
bin	-0.26665878666667	0
bin	-0.23332545333333	0
bin	-0.19999212	0
bin	-0.16665878666667	0
bin	-0.13332545333333	0
bin	-0.09999212	0
bin	-0.066658786666667	0
bin	-0.033325453333333	0
bin	7.8800000000157e-06	1
bin	0.033341213333333	0
bin	0.066674546666667	0
bin	0.10000788	0
bin	0.13334121333333	0
bin	0.16667454666667	0
bin	0.20000788	0
bin	0.23334121333333	0
bin	0.26667454666667	0
bin	0.30000788	0
bin	0.33334121333333	0
bin	0.36667454666667	0
bin	0.40000788	0
bin	0.43334121333333	0
bin	0.46667454666667	0
bin	0.50000788	0
scalar Topo.RTU3.rtu 	sentPk:count 	25
attr interpolationmode  none
attr source  sentPk
attr title  "packets sent, count"
scalar Topo.RTU3.rtu 	sentPk:sum(packetBytes) 	25
attr interpolationmode  none
attr source  sentPk
attr title  "packets sent, sum(packetBytes)"
scalar Topo.RTU4.networkLayer.arp 	failedARPResolution:count 	0
attr title  "ARP failed resolutions, count"
scalar Topo.RTU4.networkLayer.arp 	completedARPResolution:count 	1
attr title  "ARP completed resolutions, count"
scalar Topo.RTU4.networkLayer.arp 	initiatedARPResolution:count 	1
attr title  "ARP initiated resolutions, count"
scalar Topo.RTU4.networkLayer.arp 	sentReply:count 	0
attr title  "ARP replies sent, count"
scalar Topo.RTU4.networkLayer.arp 	sentReq:count 	1
attr title  "ARP request sent, count"
scalar Topo.RTU4.lo0.lo 	droppedPkBitError:count 	0
attr interpolationmode  none
attr source  dropPkBitError
attr title  "packets dropped/bit error, count"
scalar Topo.RTU4.lo0.lo 	droppedPkBitError:sum(packetBytes) 	0
attr interpolationmode  none
attr source  dropPkBitError
attr title  "packets dropped/bit error, sum(packetBytes)"
scalar Topo.RTU4.lo0.lo 	rcvdPkFromHL:count 	0
attr interpolationmode  none
attr source  packetReceivedFromUpper
attr title  "packets received from higher layer, count"
scalar Topo.RTU4.lo0.lo 	rcvdPkFromHL:sum(packetBytes) 	0
attr interpolationmode  none
attr source  packetReceivedFromUpper
attr title  "packets received from higher layer, sum(packetBytes)"
scalar Topo.RTU4.lo0.lo 	passedUpPk:count 	0
attr interpolationmode  none
attr source  packetSentToUpper
attr title  "packets passed to higher layer, count"
scalar Topo.RTU4.lo0.lo 	passedUpPk:sum(packetBytes) 	0
attr interpolationmode  none
attr source  packetSentToUpper
attr title  "packets passed to higher layer, sum(packetBytes)"
scalar Topo.RTU4.eth[0].mac 	"simulated time" 	75.00000788
scalar Topo.RTU4.eth[0].mac 	full-duplex 	1
scalar Topo.RTU4.eth[0].mac 	"frames/sec sent" 	0.38666662604089
scalar Topo.RTU4.eth[0].mac 	"frames/sec rcvd" 	0.359999962176
scalar Topo.RTU4.eth[0].mac 	"bits/sec sent" 	197.97331253294
scalar Topo.RTU4.eth[0].mac 	"bits/sec rcvd" 	184.31998063411
scalar Topo.RTU4.eth[0].mac 	"rx channel idle (%)" 	99.999979264002
scalar Topo.RTU4.eth[0].mac 	"rx channel utilization (%)" 	2.0735997821338e-05
scalar Topo.RTU4.eth[0].mac 	droppedPkNotForUs:count 	0
attr interpolationmode  none
attr source  dropPkNotForUs
attr title  "packets dropped/not for us, count"
scalar Topo.RTU4.eth[0].mac 	droppedPkNotForUs:sum(packetBytes) 	0
attr interpolationmode  none
attr source  dropPkNotForUs
attr title  "packets dropped/not for us, sum(packetBytes)"
scalar Topo.RTU4.eth[0].mac 	droppedPkIfaceDown:count 	0
attr interpolationmode  none
attr source  dropPkIfaceDown
attr title  "packets dropped/interface down, count"
scalar Topo.RTU4.eth[0].mac 	droppedPkIfaceDown:sum(packetBytes) 	0
attr interpolationmode  none
attr source  dropPkIfaceDown
attr title  "packets dropped/interface down, sum(packetBytes)"
scalar Topo.RTU4.eth[0].mac 	droppedPkBitError:count 	0
attr interpolationmode  none
attr source  dropPkBitError
attr title  "packets dropped/bit error, count"
scalar Topo.RTU4.eth[0].mac 	droppedPkBitError:sum(packetBytes) 	0
attr interpolationmode  none
attr source  dropPkBitError
attr title  "packets dropped/bit error, sum(packetBytes)"
scalar Topo.RTU4.eth[0].mac 	rxPkFromHL:count 	29
attr interpolationmode  none
attr source  rxPkFromHL
attr title  "packet bytes from higher layer, count"
scalar Topo.RTU4.eth[0].mac 	rxPkFromHL:sum(packetBytes) 	1856
attr interpolationmode  none
attr source  rxPkFromHL
attr title  "packet bytes from higher layer, sum(packetBytes)"
scalar Topo.RTU4.eth[0].mac 	rxPausePkUnits:count 	0
attr interpolationmode  none
attr title  "pause units received, count"
scalar Topo.RTU4.eth[0].mac 	rxPausePkUnits:sum 	0
attr interpolationmode  none
attr title  "pause units received, sum"
scalar Topo.RTU4.eth[0].mac 	txPausePkUnits:count 	0
attr interpolationmode  none
attr title  "pause units sent, count"
scalar Topo.RTU4.eth[0].mac 	txPausePkUnits:sum 	0
attr interpolationmode  none
attr title  "pause units sent, sum"
scalar Topo.RTU4.eth[0].mac 	rxPkOk:count 	27
attr interpolationmode  none
attr source  rxPkOk
attr title  "packets received OK, count"
scalar Topo.RTU4.eth[0].mac 	rxPkOk:sum(packetBytes) 	1728
attr interpolationmode  none
attr source  rxPkOk
attr title  "packets received OK, sum(packetBytes)"
scalar Topo.RTU4.eth[0].mac 	txPk:count 	29
attr interpolationmode  none
attr source  txPk
attr title  "packets transmitted, count"
scalar Topo.RTU4.eth[0].mac 	txPk:sum(packetBytes) 	1856
attr interpolationmode  none
attr source  txPk
attr title  "packets transmitted, sum(packetBytes)"
scalar Topo.RTU4.eth[0].mac 	passedUpPk:count 	27
attr interpolationmode  none
attr source  packetSentToUpper
attr title  "packets passed to higher layer, count"
scalar Topo.RTU4.eth[0].mac 	passedUpPk:sum(packetBytes) 	1728
attr interpolationmode  none
attr source  packetSentToUpper
attr title  "packets passed to higher layer, sum(packetBytes)"
scalar Topo.RTU4.eth[0].encap 	pauseSent:count 	0
attr title  "pause sent, count"
scalar Topo.RTU4.eth[0].encap 	pauseSent:sum 	0
attr title  "pause sent, sum"
scalar Topo.RTU4.eth[0].encap 	decapPk:count 	27
attr interpolationmode  none
attr source  decapPk
attr title  "packets decapsulated, count"
scalar Topo.RTU4.eth[0].encap 	decapPk:sum(packetBytes) 	1073
attr interpolationmode  none
attr source  decapPk
attr title  "packets decapsulated, sum(packetBytes)"
scalar Topo.RTU4.eth[0].encap 	encapPk:count 	29
attr interpolationmode  none
attr source  encapPk
attr title  "packets encapsulated, count"
scalar Topo.RTU4.eth[0].encap 	encapPk:sum(packetBytes) 	1177
attr interpolationmode  none
attr source  encapPk
attr title  "packets encapsulated, sum(packetBytes)"
scalar Topo.RTU4.rtu 	rcvdPk:count 	1
attr interpolationmode  none
attr source  rcvdPk
attr title  "packets received, count"
scalar Topo.RTU4.rtu 	rcvdPk:sum(packetBytes) 	1
attr interpolationmode  none
attr source  rcvdPk
attr title  "packets received, sum(packetBytes)"
statistic Topo.RTU4.rtu 	endToEndDelay:histogram
field count 1
field mean 7.88e-06
field stddev -nan
field sum 7.88e-06
field sqrsum 6.20944e-11
field min 7.88e-06
field max 7.88e-06
attr interpolationmode  none
attr source  messageAge(rcvdPk)
attr title  "end-to-end delay, histogram"
attr unit  s
bin	-INF	0
bin	-0.49999212	0
bin	-0.46665878666667	0
bin	-0.43332545333333	0
bin	-0.39999212	0
bin	-0.36665878666667	0
bin	-0.33332545333333	0
bin	-0.29999212	0
bin	-0.26665878666667	0
bin	-0.23332545333333	0
bin	-0.19999212	0
bin	-0.16665878666667	0
bin	-0.13332545333333	0
bin	-0.09999212	0
bin	-0.066658786666667	0
bin	-0.033325453333333	0
bin	7.8800000000157e-06	1
bin	0.033341213333333	0
bin	0.066674546666667	0
bin	0.10000788	0
bin	0.13334121333333	0
bin	0.16667454666667	0
bin	0.20000788	0
bin	0.23334121333333	0
bin	0.26667454666667	0
bin	0.30000788	0
bin	0.33334121333333	0
bin	0.36667454666667	0
bin	0.40000788	0
bin	0.43334121333333	0
bin	0.46667454666667	0
bin	0.50000788	0
scalar Topo.RTU4.rtu 	sentPk:count 	25
attr interpolationmode  none
attr source  sentPk
attr title  "packets sent, count"
scalar Topo.RTU4.rtu 	sentPk:sum(packetBytes) 	25
attr interpolationmode  none
attr source  sentPk
attr title  "packets sent, sum(packetBytes)"
